
---------- Begin Simulation Statistics ----------
final_tick                               220327384000                       # Number of ticks from beginning of simulation (restored from checkpoints and never reset)
host_inst_rate                                1062326                       # Simulator instruction rate (inst/s)
host_mem_usage                                1229036                       # Number of bytes of host memory used
host_op_rate                                  1924215                       # Simulator op (including micro ops) rate (op/s)
host_seconds                                    94.13                       # Real time elapsed on the host
host_tick_rate                             2340593640                       # Simulator tick rate (ticks/s)
sim_freq                                 1000000000000                       # Frequency of simulated ticks
sim_insts                                   100000000                       # Number of instructions simulated
sim_ops                                     181132316                       # Number of ops (including micro ops) simulated
sim_seconds                                  0.220327                       # Number of seconds simulated
sim_ticks                                220327384000                       # Number of ticks simulated
system.cpu.BranchMispred                      2559396                       # Number of branch mispredictions
system.cpu.Branches                          13383486                       # Number of branches fetched
system.cpu.branchPred.BTBCorrect                    0                       # Number of correct BTB predictions (this stat may not work properly.
system.cpu.branchPred.BTBHitPct                   nan                       # BTB Hit Percentage
system.cpu.branchPred.BTBHits                       0                       # Number of BTB hits
system.cpu.branchPred.BTBLookups                    0                       # Number of BTB lookups
system.cpu.branchPred.BTBMisses                     0                       # Number of BTB misses
system.cpu.branchPred.RASInCorrect                  0                       # Number of incorrect RAS predictions.
system.cpu.branchPred.condIncorrect           2559396                       # Number of conditional branches incorrect
system.cpu.branchPred.condPredicted          12901969                       # Number of conditional branches predicted
system.cpu.branchPred.indirectHits            9505944                       # Number of indirect target hits.
system.cpu.branchPred.indirectLookups        10952745                       # Number of indirect predictor lookups.
system.cpu.branchPred.indirectMisses          1446801                       # Number of indirect misses.
system.cpu.branchPred.lookups                13383486                       # Number of BP lookups
system.cpu.branchPred.usedRAS                  240752                       # Number of times the RAS was used to get a target.
system.cpu.branchPredindirectMispredicted      1362156                       # Number of mispredicted indirect branches.
system.cpu.committedInsts                   100000000                       # Number of instructions committed
system.cpu.committedOps                     181132316                       # Number of ops (including micro ops) committed
system.cpu.dtb.rdAccesses                    14666906                       # TLB accesses on read requests
system.cpu.dtb.rdMisses                         13104                       # TLB misses on read requests
system.cpu.dtb.wrAccesses                    70522556                       # TLB accesses on write requests
system.cpu.dtb.wrMisses                        174929                       # TLB misses on write requests
system.cpu.idle_fraction                            0                       # Percentage of idle cycles
system.cpu.itb.rdAccesses                           0                       # TLB accesses on read requests
system.cpu.itb.rdMisses                             0                       # TLB misses on read requests
system.cpu.itb.wrAccesses                   139195109                       # TLB accesses on write requests
system.cpu.itb.wrMisses                            75                       # TLB misses on write requests
system.cpu.not_idle_fraction                        1                       # Percentage of non-idle cycles
system.cpu.numCycles                        220327425                       # number of cpu cycles simulated
system.cpu.numWorkItemsCompleted                    0                       # number of work items this cpu completed
system.cpu.numWorkItemsStarted                      0                       # number of work items this cpu started
system.cpu.num_busy_cycles                  220327425                       # Number of busy cycles
system.cpu.num_cc_register_reads             66390527                       # number of times the CC registers were read
system.cpu.num_cc_register_writes            58331502                       # number of times the CC registers were written
system.cpu.num_conditional_control_insts     12357188                       # number of instructions that are conditional controls
system.cpu.num_fp_alu_accesses               66116276                       # Number of float alu accesses
system.cpu.num_fp_insts                      66116276                       # number of float instructions
system.cpu.num_fp_register_reads             66144202                       # number of times the floating registers were read
system.cpu.num_fp_register_writes               34766                       # number of times the floating registers were written
system.cpu.num_func_calls                      481517                       # number of times a function call or return occured
system.cpu.num_idle_cycles                          0                       # Number of idle cycles
system.cpu.num_int_alu_accesses             180988631                       # Number of integer alu accesses
system.cpu.num_int_insts                    180988631                       # number of integer instructions
system.cpu.num_int_register_reads           393314658                       # number of times the integer registers were read
system.cpu.num_int_register_writes           97346751                       # number of times the integer registers were written
system.cpu.num_load_insts                    14666590                       # Number of load instructions
system.cpu.num_mem_refs                      85189145                       # number of memory refs
system.cpu.num_store_insts                   70522555                       # Number of store instructions
system.cpu.num_vec_alu_accesses                     0                       # Number of vector alu accesses
system.cpu.num_vec_insts                            0                       # number of vector instructions
system.cpu.num_vec_register_reads                   0                       # number of times the vector registers were read
system.cpu.num_vec_register_writes                  0                       # number of times the vector registers were written
system.cpu.op_class::No_OpClass                 16728      0.01%      0.01% # Class of executed instruction
system.cpu.op_class::IntAlu                  95766214     52.86%     52.87% # Class of executed instruction
system.cpu.op_class::IntMult                    94292      0.05%     52.92% # Class of executed instruction
system.cpu.op_class::IntDiv                     79937      0.04%     52.96% # Class of executed instruction
system.cpu.op_class::FloatAdd                    2238      0.00%     52.96% # Class of executed instruction
system.cpu.op_class::FloatCmp                       0      0.00%     52.96% # Class of executed instruction
system.cpu.op_class::FloatCvt                       0      0.00%     52.96% # Class of executed instruction
system.cpu.op_class::FloatMult                      0      0.00%     52.96% # Class of executed instruction
system.cpu.op_class::FloatMultAcc                   0      0.00%     52.96% # Class of executed instruction
system.cpu.op_class::FloatDiv                       0      0.00%     52.96% # Class of executed instruction
system.cpu.op_class::FloatMisc                      0      0.00%     52.96% # Class of executed instruction
system.cpu.op_class::FloatSqrt                      0      0.00%     52.96% # Class of executed instruction
system.cpu.op_class::SimdAdd                        0      0.00%     52.96% # Class of executed instruction
system.cpu.op_class::SimdAddAcc                     0      0.00%     52.96% # Class of executed instruction
system.cpu.op_class::SimdAlu                     4494      0.00%     52.97% # Class of executed instruction
system.cpu.op_class::SimdCmp                       18      0.00%     52.97% # Class of executed instruction
system.cpu.op_class::SimdCvt                     5134      0.00%     52.97% # Class of executed instruction
system.cpu.op_class::SimdMisc                   18047      0.01%     52.98% # Class of executed instruction
system.cpu.op_class::SimdMult                       0      0.00%     52.98% # Class of executed instruction
system.cpu.op_class::SimdMultAcc                    0      0.00%     52.98% # Class of executed instruction
system.cpu.op_class::SimdShift                      0      0.00%     52.98% # Class of executed instruction
system.cpu.op_class::SimdShiftAcc                   0      0.00%     52.98% # Class of executed instruction
system.cpu.op_class::SimdDiv                        0      0.00%     52.98% # Class of executed instruction
system.cpu.op_class::SimdSqrt                       0      0.00%     52.98% # Class of executed instruction
system.cpu.op_class::SimdFloatAdd                   0      0.00%     52.98% # Class of executed instruction
system.cpu.op_class::SimdFloatAlu                   0      0.00%     52.98% # Class of executed instruction
system.cpu.op_class::SimdFloatCmp                   0      0.00%     52.98% # Class of executed instruction
system.cpu.op_class::SimdFloatCvt                  29      0.00%     52.98% # Class of executed instruction
system.cpu.op_class::SimdFloatDiv                   5      0.00%     52.98% # Class of executed instruction
system.cpu.op_class::SimdFloatMisc                  0      0.00%     52.98% # Class of executed instruction
system.cpu.op_class::SimdFloatMult                  5      0.00%     52.98% # Class of executed instruction
system.cpu.op_class::SimdFloatMultAcc               0      0.00%     52.98% # Class of executed instruction
system.cpu.op_class::SimdFloatSqrt                  0      0.00%     52.98% # Class of executed instruction
system.cpu.op_class::SimdReduceAdd                  0      0.00%     52.98% # Class of executed instruction
system.cpu.op_class::SimdReduceAlu                  0      0.00%     52.98% # Class of executed instruction
system.cpu.op_class::SimdReduceCmp                  0      0.00%     52.98% # Class of executed instruction
system.cpu.op_class::SimdFloatReduceAdd             0      0.00%     52.98% # Class of executed instruction
system.cpu.op_class::SimdFloatReduceCmp             0      0.00%     52.98% # Class of executed instruction
system.cpu.op_class::SimdAes                        0      0.00%     52.98% # Class of executed instruction
system.cpu.op_class::SimdAesMix                     0      0.00%     52.98% # Class of executed instruction
system.cpu.op_class::SimdSha1Hash                   0      0.00%     52.98% # Class of executed instruction
system.cpu.op_class::SimdSha1Hash2                  0      0.00%     52.98% # Class of executed instruction
system.cpu.op_class::SimdSha256Hash                 0      0.00%     52.98% # Class of executed instruction
system.cpu.op_class::SimdSha256Hash2                0      0.00%     52.98% # Class of executed instruction
system.cpu.op_class::SimdShaSigma2                  0      0.00%     52.98% # Class of executed instruction
system.cpu.op_class::SimdShaSigma3                  0      0.00%     52.98% # Class of executed instruction
system.cpu.op_class::SimdPredAlu                    0      0.00%     52.98% # Class of executed instruction
system.cpu.op_class::MemRead                 14663913      8.09%     61.07% # Class of executed instruction
system.cpu.op_class::MemWrite                 4443692      2.45%     63.53% # Class of executed instruction
system.cpu.op_class::FloatMemRead                2677      0.00%     63.53% # Class of executed instruction
system.cpu.op_class::FloatMemWrite           66078863     36.47%    100.00% # Class of executed instruction
system.cpu.op_class::IprAccess                      0      0.00%    100.00% # Class of executed instruction
system.cpu.op_class::InstPrefetch                   0      0.00%    100.00% # Class of executed instruction
system.cpu.op_class::total                  181176286                       # Class of executed instruction
system.cpu.predictedBranches                  9746696                       # Number of branches predicted as taken
system.cpu.workload.numSyscalls                   146                       # Number of system calls
system.l2bus.snoop_filter.hit_multi_requests            1                       # Number of requests hitting in the snoop filter with multiple (>1) holders of the requested data.
system.l2bus.snoop_filter.hit_multi_snoops            0                       # Number of snoops hitting in the snoop filter with multiple (>1) holders of the requested data.
system.l2bus.snoop_filter.hit_single_requests      8752096                       # Number of requests hitting in the snoop filter with a single holder of the requested data.
system.l2bus.snoop_filter.hit_single_snoops         2113                       # Number of snoops hitting in the snoop filter with a single holder of the requested data.
system.l2bus.snoop_filter.tot_requests       17505472                       # Total number of requests made to the snoop filter.
system.l2bus.snoop_filter.tot_snoops             2113                       # Total number of snoops made to the snoop filter.
system.membus.snoop_filter.hit_multi_requests            0                       # Number of requests hitting in the snoop filter with multiple (>1) holders of the requested data.
system.membus.snoop_filter.hit_multi_snoops            0                       # Number of snoops hitting in the snoop filter with multiple (>1) holders of the requested data.
system.membus.snoop_filter.hit_single_requests      8296187                       # Number of requests hitting in the snoop filter with a single holder of the requested data.
system.membus.snoop_filter.hit_single_snoops            0                       # Number of snoops hitting in the snoop filter with a single holder of the requested data.
system.membus.snoop_filter.tot_requests      16596501                       # Total number of requests made to the snoop filter.
system.membus.snoop_filter.tot_snoops               0                       # Total number of snoops made to the snoop filter.
system.clk_domain.clock                          1000                       # Clock period in ticks
system.clk_domain.voltage_domain.voltage            1                       # Voltage in Volts
system.cpu.dcache.demand_hits::.cpu.data     76834848                       # number of demand (read+write) hits
system.cpu.dcache.demand_hits::total         76834848                       # number of demand (read+write) hits
system.cpu.dcache.overall_hits::.cpu.data     76834848                       # number of overall hits
system.cpu.dcache.overall_hits::total        76834848                       # number of overall hits
system.cpu.dcache.demand_misses::.cpu.data      8310644                       # number of demand (read+write) misses
system.cpu.dcache.demand_misses::total        8310644                       # number of demand (read+write) misses
system.cpu.dcache.overall_misses::.cpu.data      8310644                       # number of overall misses
system.cpu.dcache.overall_misses::total       8310644                       # number of overall misses
system.cpu.dcache.demand_accesses::.cpu.data     85145492                       # number of demand (read+write) accesses
system.cpu.dcache.demand_accesses::total     85145492                       # number of demand (read+write) accesses
system.cpu.dcache.overall_accesses::.cpu.data     85145492                       # number of overall (read+write) accesses
system.cpu.dcache.overall_accesses::total     85145492                       # number of overall (read+write) accesses
system.cpu.dcache.demand_miss_rate::.cpu.data     0.097605                       # miss rate for demand accesses
system.cpu.dcache.demand_miss_rate::total     0.097605                       # miss rate for demand accesses
system.cpu.dcache.overall_miss_rate::.cpu.data     0.097605                       # miss rate for overall accesses
system.cpu.dcache.overall_miss_rate::total     0.097605                       # miss rate for overall accesses
system.cpu.dcache.blocked_cycles::no_mshrs            0                       # number of cycles access was blocked
system.cpu.dcache.blocked_cycles::no_targets            0                       # number of cycles access was blocked
system.cpu.dcache.blocked::no_mshrs                 0                       # number of cycles access was blocked
system.cpu.dcache.blocked::no_targets               0                       # number of cycles access was blocked
system.cpu.dcache.avg_blocked_cycles::no_mshrs          nan                       # average number of cycles each access was blocked
system.cpu.dcache.avg_blocked_cycles::no_targets          nan                       # average number of cycles each access was blocked
system.cpu.dcache.writebacks::.writebacks      8302022                       # number of writebacks
system.cpu.dcache.writebacks::total           8302022                       # number of writebacks
system.cpu.dcache.replacements                8309620                       # number of replacements
system.cpu.dcache.ReadReq_hits::.cpu.data     14651362                       # number of ReadReq hits
system.cpu.dcache.ReadReq_hits::total        14651362                       # number of ReadReq hits
system.cpu.dcache.ReadReq_misses::.cpu.data        15544                       # number of ReadReq misses
system.cpu.dcache.ReadReq_misses::total         15544                       # number of ReadReq misses
system.cpu.dcache.ReadReq_accesses::.cpu.data     14666906                       # number of ReadReq accesses(hits+misses)
system.cpu.dcache.ReadReq_accesses::total     14666906                       # number of ReadReq accesses(hits+misses)
system.cpu.dcache.ReadReq_miss_rate::.cpu.data     0.001060                       # miss rate for ReadReq accesses
system.cpu.dcache.ReadReq_miss_rate::total     0.001060                       # miss rate for ReadReq accesses
system.cpu.dcache.WriteReq_hits::.cpu.data     62183486                       # number of WriteReq hits
system.cpu.dcache.WriteReq_hits::total       62183486                       # number of WriteReq hits
system.cpu.dcache.WriteReq_misses::.cpu.data      8295100                       # number of WriteReq misses
system.cpu.dcache.WriteReq_misses::total      8295100                       # number of WriteReq misses
system.cpu.dcache.WriteReq_accesses::.cpu.data     70478586                       # number of WriteReq accesses(hits+misses)
system.cpu.dcache.WriteReq_accesses::total     70478586                       # number of WriteReq accesses(hits+misses)
system.cpu.dcache.WriteReq_miss_rate::.cpu.data     0.117697                       # miss rate for WriteReq accesses
system.cpu.dcache.WriteReq_miss_rate::total     0.117697                       # miss rate for WriteReq accesses
system.cpu.dcache.power_state.pwrStateResidencyTicks::UNDEFINED 220327384000                       # Cumulative time (in ticks) in various power states
system.cpu.dcache.tags.tagsinuse          1022.364203                       # Cycle average of tags in use
system.cpu.dcache.tags.total_refs            85145492                       # Total number of references to valid blocks.
system.cpu.dcache.tags.sampled_refs           8310644                       # Sample count of references to valid blocks.
system.cpu.dcache.tags.avg_refs             10.245354                       # Average number of references to valid blocks.
system.cpu.dcache.tags.warmup_cycle              2000                       # Cycle when the warmup percentage was hit.
system.cpu.dcache.tags.occ_blocks::.cpu.data  1022.364203                       # Average occupied blocks per requestor
system.cpu.dcache.tags.occ_percent::.cpu.data     0.998403                       # Average percentage of cache occupancy
system.cpu.dcache.tags.occ_percent::total     0.998403                       # Average percentage of cache occupancy
system.cpu.dcache.tags.occ_task_id_blocks::1024         1024                       # Occupied blocks per task id
system.cpu.dcache.tags.age_task_id_blocks_1024::0            6                       # Occupied blocks per task id
system.cpu.dcache.tags.age_task_id_blocks_1024::1           25                       # Occupied blocks per task id
system.cpu.dcache.tags.age_task_id_blocks_1024::2          125                       # Occupied blocks per task id
system.cpu.dcache.tags.age_task_id_blocks_1024::3          413                       # Occupied blocks per task id
system.cpu.dcache.tags.age_task_id_blocks_1024::4          455                       # Occupied blocks per task id
system.cpu.dcache.tags.occ_task_id_percent::1024            1                       # Percentage of cache occupancy per task id
system.cpu.dcache.tags.tag_accesses         178601628                       # Number of tag accesses
system.cpu.dcache.tags.data_accesses        178601628                       # Number of data accesses
system.cpu.dcache.tags.power_state.pwrStateResidencyTicks::UNDEFINED 220327384000                       # Cumulative time (in ticks) in various power states
system.cpu.dtb.walker.power_state.pwrStateResidencyTicks::UNDEFINED 220327384000                       # Cumulative time (in ticks) in various power states
system.cpu.icache.demand_hits::.cpu.inst    138752377                       # number of demand (read+write) hits
system.cpu.icache.demand_hits::total        138752377                       # number of demand (read+write) hits
system.cpu.icache.overall_hits::.cpu.inst    138752377                       # number of overall hits
system.cpu.icache.overall_hits::total       138752377                       # number of overall hits
system.cpu.icache.demand_misses::.cpu.inst       442732                       # number of demand (read+write) misses
system.cpu.icache.demand_misses::total         442732                       # number of demand (read+write) misses
system.cpu.icache.overall_misses::.cpu.inst       442732                       # number of overall misses
system.cpu.icache.overall_misses::total        442732                       # number of overall misses
system.cpu.icache.demand_accesses::.cpu.inst    139195109                       # number of demand (read+write) accesses
system.cpu.icache.demand_accesses::total    139195109                       # number of demand (read+write) accesses
system.cpu.icache.overall_accesses::.cpu.inst    139195109                       # number of overall (read+write) accesses
system.cpu.icache.overall_accesses::total    139195109                       # number of overall (read+write) accesses
system.cpu.icache.demand_miss_rate::.cpu.inst     0.003181                       # miss rate for demand accesses
system.cpu.icache.demand_miss_rate::total     0.003181                       # miss rate for demand accesses
system.cpu.icache.overall_miss_rate::.cpu.inst     0.003181                       # miss rate for overall accesses
system.cpu.icache.overall_miss_rate::total     0.003181                       # miss rate for overall accesses
system.cpu.icache.blocked_cycles::no_mshrs            0                       # number of cycles access was blocked
system.cpu.icache.blocked_cycles::no_targets            0                       # number of cycles access was blocked
system.cpu.icache.blocked::no_mshrs                 0                       # number of cycles access was blocked
system.cpu.icache.blocked::no_targets               0                       # number of cycles access was blocked
system.cpu.icache.avg_blocked_cycles::no_mshrs          nan                       # average number of cycles each access was blocked
system.cpu.icache.avg_blocked_cycles::no_targets          nan                       # average number of cycles each access was blocked
system.cpu.icache.replacements                 442476                       # number of replacements
system.cpu.icache.ReadReq_hits::.cpu.inst    138752377                       # number of ReadReq hits
system.cpu.icache.ReadReq_hits::total       138752377                       # number of ReadReq hits
system.cpu.icache.ReadReq_misses::.cpu.inst       442732                       # number of ReadReq misses
system.cpu.icache.ReadReq_misses::total        442732                       # number of ReadReq misses
system.cpu.icache.ReadReq_accesses::.cpu.inst    139195109                       # number of ReadReq accesses(hits+misses)
system.cpu.icache.ReadReq_accesses::total    139195109                       # number of ReadReq accesses(hits+misses)
system.cpu.icache.ReadReq_miss_rate::.cpu.inst     0.003181                       # miss rate for ReadReq accesses
system.cpu.icache.ReadReq_miss_rate::total     0.003181                       # miss rate for ReadReq accesses
system.cpu.icache.power_state.pwrStateResidencyTicks::UNDEFINED 220327384000                       # Cumulative time (in ticks) in various power states
system.cpu.icache.tags.tagsinuse           250.466172                       # Cycle average of tags in use
system.cpu.icache.tags.total_refs           139195109                       # Total number of references to valid blocks.
system.cpu.icache.tags.sampled_refs            442732                       # Sample count of references to valid blocks.
system.cpu.icache.tags.avg_refs            314.400380                       # Average number of references to valid blocks.
system.cpu.icache.tags.warmup_cycle                 0                       # Cycle when the warmup percentage was hit.
system.cpu.icache.tags.occ_blocks::.cpu.inst   250.466172                       # Average occupied blocks per requestor
system.cpu.icache.tags.occ_percent::.cpu.inst     0.978383                       # Average percentage of cache occupancy
system.cpu.icache.tags.occ_percent::total     0.978383                       # Average percentage of cache occupancy
system.cpu.icache.tags.occ_task_id_blocks::1024          256                       # Occupied blocks per task id
system.cpu.icache.tags.age_task_id_blocks_1024::0           61                       # Occupied blocks per task id
system.cpu.icache.tags.age_task_id_blocks_1024::1          157                       # Occupied blocks per task id
system.cpu.icache.tags.age_task_id_blocks_1024::2           30                       # Occupied blocks per task id
system.cpu.icache.tags.age_task_id_blocks_1024::3            2                       # Occupied blocks per task id
system.cpu.icache.tags.age_task_id_blocks_1024::4            6                       # Occupied blocks per task id
system.cpu.icache.tags.occ_task_id_percent::1024            1                       # Percentage of cache occupancy per task id
system.cpu.icache.tags.tag_accesses         278832950                       # Number of tag accesses
system.cpu.icache.tags.data_accesses        278832950                       # Number of data accesses
system.cpu.icache.tags.power_state.pwrStateResidencyTicks::UNDEFINED 220327384000                       # Cumulative time (in ticks) in various power states
system.cpu.interrupts.clk_domain.clock          16000                       # Clock period in ticks
system.cpu.itb.walker.power_state.pwrStateResidencyTicks::UNDEFINED 220327384000                       # Cumulative time (in ticks) in various power states
system.cpu.power_state.numTransitions               1                       # Number of power state transitions
system.cpu.power_state.pwrStateResidencyTicks::ON 220327384000                       # Cumulative time (in ticks) in various power states
system.l2bus.trans_dist::ReadResp              458276                       # Transaction distribution
system.l2bus.trans_dist::WritebackDirty       8302022                       # Transaction distribution
system.l2bus.trans_dist::CleanEvict            450074                       # Transaction distribution
system.l2bus.trans_dist::ReadExReq            8295100                       # Transaction distribution
system.l2bus.trans_dist::ReadExResp           8295100                       # Transaction distribution
system.l2bus.trans_dist::ReadSharedReq         458276                       # Transaction distribution
system.l2bus.pkt_count_system.cpu.icache.mem_side::system.l2cache.cpu_side      1327940                       # Packet count per connected master and slave (bytes)
system.l2bus.pkt_count_system.cpu.dcache.mem_side::system.l2cache.cpu_side     24930908                       # Packet count per connected master and slave (bytes)
system.l2bus.pkt_count::total                26258848                       # Packet count per connected master and slave (bytes)
system.l2bus.pkt_size_system.cpu.icache.mem_side::system.l2cache.cpu_side     28334848                       # Cumulative packet size per connected master and slave (bytes)
system.l2bus.pkt_size_system.cpu.dcache.mem_side::system.l2cache.cpu_side   1063210624                       # Cumulative packet size per connected master and slave (bytes)
system.l2bus.pkt_size::total               1091545472                       # Cumulative packet size per connected master and slave (bytes)
system.l2bus.snoops                           8296843                       # Total snoops (count)
system.l2bus.snoopTraffic                   530691840                       # Total snoop traffic (bytes)
system.l2bus.snoop_fanout::samples           17050219                       # Request fanout histogram
system.l2bus.snoop_fanout::mean              0.000124                       # Request fanout histogram
system.l2bus.snoop_fanout::stdev             0.011134                       # Request fanout histogram
system.l2bus.snoop_fanout::underflows               0      0.00%      0.00% # Request fanout histogram
system.l2bus.snoop_fanout::0                 17048105     99.99%     99.99% # Request fanout histogram
system.l2bus.snoop_fanout::1                     2114      0.01%    100.00% # Request fanout histogram
system.l2bus.snoop_fanout::2                        0      0.00%    100.00% # Request fanout histogram
system.l2bus.snoop_fanout::overflows                0      0.00%    100.00% # Request fanout histogram
system.l2bus.snoop_fanout::min_value                0                       # Request fanout histogram
system.l2bus.snoop_fanout::max_value                1                       # Request fanout histogram
system.l2bus.snoop_fanout::total             17050219                       # Request fanout histogram
system.l2bus.power_state.pwrStateResidencyTicks::UNDEFINED 220327384000                       # Cumulative time (in ticks) in various power states
system.l2cache.demand_hits::.cpu.inst          439109                       # number of demand (read+write) hits
system.l2cache.demand_hits::.cpu.data           13953                       # number of demand (read+write) hits
system.l2cache.demand_hits::total              453062                       # number of demand (read+write) hits
system.l2cache.overall_hits::.cpu.inst         439109                       # number of overall hits
system.l2cache.overall_hits::.cpu.data          13953                       # number of overall hits
system.l2cache.overall_hits::total             453062                       # number of overall hits
system.l2cache.demand_misses::.cpu.inst          3623                       # number of demand (read+write) misses
system.l2cache.demand_misses::.cpu.data       8296691                       # number of demand (read+write) misses
system.l2cache.demand_misses::total           8300314                       # number of demand (read+write) misses
system.l2cache.overall_misses::.cpu.inst         3623                       # number of overall misses
system.l2cache.overall_misses::.cpu.data      8296691                       # number of overall misses
system.l2cache.overall_misses::total          8300314                       # number of overall misses
system.l2cache.demand_accesses::.cpu.inst       442732                       # number of demand (read+write) accesses
system.l2cache.demand_accesses::.cpu.data      8310644                       # number of demand (read+write) accesses
system.l2cache.demand_accesses::total         8753376                       # number of demand (read+write) accesses
system.l2cache.overall_accesses::.cpu.inst       442732                       # number of overall (read+write) accesses
system.l2cache.overall_accesses::.cpu.data      8310644                       # number of overall (read+write) accesses
system.l2cache.overall_accesses::total        8753376                       # number of overall (read+write) accesses
system.l2cache.demand_miss_rate::.cpu.inst     0.008183                       # miss rate for demand accesses
system.l2cache.demand_miss_rate::.cpu.data     0.998321                       # miss rate for demand accesses
system.l2cache.demand_miss_rate::total       0.948241                       # miss rate for demand accesses
system.l2cache.overall_miss_rate::.cpu.inst     0.008183                       # miss rate for overall accesses
system.l2cache.overall_miss_rate::.cpu.data     0.998321                       # miss rate for overall accesses
system.l2cache.overall_miss_rate::total      0.948241                       # miss rate for overall accesses
system.l2cache.blocked_cycles::no_mshrs             0                       # number of cycles access was blocked
system.l2cache.blocked_cycles::no_targets            0                       # number of cycles access was blocked
system.l2cache.blocked::no_mshrs                    0                       # number of cycles access was blocked
system.l2cache.blocked::no_targets                  0                       # number of cycles access was blocked
system.l2cache.avg_blocked_cycles::no_mshrs          nan                       # average number of cycles each access was blocked
system.l2cache.avg_blocked_cycles::no_targets          nan                       # average number of cycles each access was blocked
system.l2cache.writebacks::.writebacks        8292060                       # number of writebacks
system.l2cache.writebacks::total              8292060                       # number of writebacks
system.l2cache.replacements                   8296843                       # number of replacements
system.l2cache.WritebackDirty_hits::.writebacks      8302022                       # number of WritebackDirty hits
system.l2cache.WritebackDirty_hits::total      8302022                       # number of WritebackDirty hits
system.l2cache.WritebackDirty_accesses::.writebacks      8302022                       # number of WritebackDirty accesses(hits+misses)
system.l2cache.WritebackDirty_accesses::total      8302022                       # number of WritebackDirty accesses(hits+misses)
system.l2cache.ReadExReq_hits::.cpu.data         4978                       # number of ReadExReq hits
system.l2cache.ReadExReq_hits::total             4978                       # number of ReadExReq hits
system.l2cache.ReadExReq_misses::.cpu.data      8290122                       # number of ReadExReq misses
system.l2cache.ReadExReq_misses::total        8290122                       # number of ReadExReq misses
system.l2cache.ReadExReq_accesses::.cpu.data      8295100                       # number of ReadExReq accesses(hits+misses)
system.l2cache.ReadExReq_accesses::total      8295100                       # number of ReadExReq accesses(hits+misses)
system.l2cache.ReadExReq_miss_rate::.cpu.data     0.999400                       # miss rate for ReadExReq accesses
system.l2cache.ReadExReq_miss_rate::total     0.999400                       # miss rate for ReadExReq accesses
system.l2cache.ReadSharedReq_hits::.cpu.inst       439109                       # number of ReadSharedReq hits
system.l2cache.ReadSharedReq_hits::.cpu.data         8975                       # number of ReadSharedReq hits
system.l2cache.ReadSharedReq_hits::total       448084                       # number of ReadSharedReq hits
system.l2cache.ReadSharedReq_misses::.cpu.inst         3623                       # number of ReadSharedReq misses
system.l2cache.ReadSharedReq_misses::.cpu.data         6569                       # number of ReadSharedReq misses
system.l2cache.ReadSharedReq_misses::total        10192                       # number of ReadSharedReq misses
system.l2cache.ReadSharedReq_accesses::.cpu.inst       442732                       # number of ReadSharedReq accesses(hits+misses)
system.l2cache.ReadSharedReq_accesses::.cpu.data        15544                       # number of ReadSharedReq accesses(hits+misses)
system.l2cache.ReadSharedReq_accesses::total       458276                       # number of ReadSharedReq accesses(hits+misses)
system.l2cache.ReadSharedReq_miss_rate::.cpu.inst     0.008183                       # miss rate for ReadSharedReq accesses
system.l2cache.ReadSharedReq_miss_rate::.cpu.data     0.422607                       # miss rate for ReadSharedReq accesses
system.l2cache.ReadSharedReq_miss_rate::total     0.022240                       # miss rate for ReadSharedReq accesses
system.l2cache.power_state.pwrStateResidencyTicks::UNDEFINED 220327384000                       # Cumulative time (in ticks) in various power states
system.l2cache.tags.tagsinuse             4042.367975                       # Cycle average of tags in use
system.l2cache.tags.total_refs               17504014                       # Total number of references to valid blocks.
system.l2cache.tags.sampled_refs              8300939                       # Sample count of references to valid blocks.
system.l2cache.tags.avg_refs                 2.108679                       # Average number of references to valid blocks.
system.l2cache.tags.warmup_cycle                    0                       # Cycle when the warmup percentage was hit.
system.l2cache.tags.occ_blocks::.writebacks    52.231962                       # Average occupied blocks per requestor
system.l2cache.tags.occ_blocks::.cpu.inst   304.953363                       # Average occupied blocks per requestor
system.l2cache.tags.occ_blocks::.cpu.data  3685.182651                       # Average occupied blocks per requestor
system.l2cache.tags.occ_percent::.writebacks     0.012752                       # Average percentage of cache occupancy
system.l2cache.tags.occ_percent::.cpu.inst     0.074452                       # Average percentage of cache occupancy
system.l2cache.tags.occ_percent::.cpu.data     0.899703                       # Average percentage of cache occupancy
system.l2cache.tags.occ_percent::total       0.986906                       # Average percentage of cache occupancy
system.l2cache.tags.occ_task_id_blocks::1024         4096                       # Occupied blocks per task id
system.l2cache.tags.age_task_id_blocks_1024::1           13                       # Occupied blocks per task id
system.l2cache.tags.age_task_id_blocks_1024::2           83                       # Occupied blocks per task id
system.l2cache.tags.age_task_id_blocks_1024::3          578                       # Occupied blocks per task id
system.l2cache.tags.age_task_id_blocks_1024::4         3422                       # Occupied blocks per task id
system.l2cache.tags.occ_task_id_percent::1024            1                       # Percentage of cache occupancy per task id
system.l2cache.tags.tag_accesses            148344707                       # Number of tag accesses
system.l2cache.tags.data_accesses           148344707                       # Number of data accesses
system.l2cache.tags.power_state.pwrStateResidencyTicks::UNDEFINED 220327384000                       # Cumulative time (in ticks) in various power states
system.mem_ctrl.bytes_read::.cpu.inst          231872                       # Number of bytes read from this memory
system.mem_ctrl.bytes_read::.cpu.data       530988224                       # Number of bytes read from this memory
system.mem_ctrl.bytes_read::total           531220096                       # Number of bytes read from this memory
system.mem_ctrl.bytes_inst_read::.cpu.inst       231872                       # Number of instructions bytes read from this memory
system.mem_ctrl.bytes_inst_read::total         231872                       # Number of instructions bytes read from this memory
system.mem_ctrl.bytes_written::.writebacks    530691840                       # Number of bytes written to this memory
system.mem_ctrl.bytes_written::total        530691840                       # Number of bytes written to this memory
system.mem_ctrl.num_reads::.cpu.inst             3623                       # Number of read requests responded to by this memory
system.mem_ctrl.num_reads::.cpu.data          8296691                       # Number of read requests responded to by this memory
system.mem_ctrl.num_reads::total              8300314                       # Number of read requests responded to by this memory
system.mem_ctrl.num_writes::.writebacks       8292060                       # Number of write requests responded to by this memory
system.mem_ctrl.num_writes::total             8292060                       # Number of write requests responded to by this memory
system.mem_ctrl.bw_read::.cpu.inst            1052398                       # Total read bandwidth from this memory (bytes/s)
system.mem_ctrl.bw_read::.cpu.data         2409996499                       # Total read bandwidth from this memory (bytes/s)
system.mem_ctrl.bw_read::total             2411048896                       # Total read bandwidth from this memory (bytes/s)
system.mem_ctrl.bw_inst_read::.cpu.inst       1052398                       # Instruction read bandwidth from this memory (bytes/s)
system.mem_ctrl.bw_inst_read::total           1052398                       # Instruction read bandwidth from this memory (bytes/s)
system.mem_ctrl.bw_write::.writebacks      2408651300                       # Write bandwidth from this memory (bytes/s)
system.mem_ctrl.bw_write::total            2408651300                       # Write bandwidth from this memory (bytes/s)
system.mem_ctrl.bw_total::.writebacks      2408651300                       # Total bandwidth to/from this memory (bytes/s)
system.mem_ctrl.bw_total::.cpu.inst           1052398                       # Total bandwidth to/from this memory (bytes/s)
system.mem_ctrl.bw_total::.cpu.data        2409996499                       # Total bandwidth to/from this memory (bytes/s)
system.mem_ctrl.bw_total::total            4819700197                       # Total bandwidth to/from this memory (bytes/s)
system.mem_ctrl.priorityMinLatency       0.000000000000                       # per QoS priority minimum request to response latency (s)
system.mem_ctrl.priorityMaxLatency       0.000000000000                       # per QoS priority maximum request to response latency (s)
system.mem_ctrl.numReadWriteTurnArounds             0                       # Number of turnarounds from READ to WRITE
system.mem_ctrl.numWriteReadTurnArounds             0                       # Number of turnarounds from WRITE to READ
system.mem_ctrl.numStayReadState                    0                       # Number of times bus staying in READ state
system.mem_ctrl.numStayWriteState                   0                       # Number of times bus staying in WRITE state
system.mem_ctrl.readReqs                            0                       # Number of read requests accepted
system.mem_ctrl.writeReqs                           0                       # Number of write requests accepted
system.mem_ctrl.readBursts                          0                       # Number of DRAM read bursts, including those serviced by the write queue
system.mem_ctrl.writeBursts                         0                       # Number of DRAM write bursts, including those merged in the write queue
system.mem_ctrl.servicedByWrQ                       0                       # Number of DRAM read bursts serviced by the write queue
system.mem_ctrl.mergedWrBursts                      0                       # Number of DRAM write bursts merged with an existing one
system.mem_ctrl.neitherReadNorWriteReqs             0                       # Number of requests that are neither read nor write
system.mem_ctrl.perBankRdBursts::0                  0                       # Per bank write bursts
system.mem_ctrl.perBankRdBursts::1                  0                       # Per bank write bursts
system.mem_ctrl.perBankRdBursts::2                  0                       # Per bank write bursts
system.mem_ctrl.perBankRdBursts::3                  0                       # Per bank write bursts
system.mem_ctrl.perBankRdBursts::4                  0                       # Per bank write bursts
system.mem_ctrl.perBankRdBursts::5                  0                       # Per bank write bursts
system.mem_ctrl.perBankRdBursts::6                  0                       # Per bank write bursts
system.mem_ctrl.perBankRdBursts::7                  0                       # Per bank write bursts
system.mem_ctrl.perBankRdBursts::8                  0                       # Per bank write bursts
system.mem_ctrl.perBankRdBursts::9                  0                       # Per bank write bursts
system.mem_ctrl.perBankRdBursts::10                 0                       # Per bank write bursts
system.mem_ctrl.perBankRdBursts::11                 0                       # Per bank write bursts
system.mem_ctrl.perBankRdBursts::12                 0                       # Per bank write bursts
system.mem_ctrl.perBankRdBursts::13                 0                       # Per bank write bursts
system.mem_ctrl.perBankRdBursts::14                 0                       # Per bank write bursts
system.mem_ctrl.perBankRdBursts::15                 0                       # Per bank write bursts
system.mem_ctrl.perBankWrBursts::0                  0                       # Per bank write bursts
system.mem_ctrl.perBankWrBursts::1                  0                       # Per bank write bursts
system.mem_ctrl.perBankWrBursts::2                  0                       # Per bank write bursts
system.mem_ctrl.perBankWrBursts::3                  0                       # Per bank write bursts
system.mem_ctrl.perBankWrBursts::4                  0                       # Per bank write bursts
system.mem_ctrl.perBankWrBursts::5                  0                       # Per bank write bursts
system.mem_ctrl.perBankWrBursts::6                  0                       # Per bank write bursts
system.mem_ctrl.perBankWrBursts::7                  0                       # Per bank write bursts
system.mem_ctrl.perBankWrBursts::8                  0                       # Per bank write bursts
system.mem_ctrl.perBankWrBursts::9                  0                       # Per bank write bursts
system.mem_ctrl.perBankWrBursts::10                 0                       # Per bank write bursts
system.mem_ctrl.perBankWrBursts::11                 0                       # Per bank write bursts
system.mem_ctrl.perBankWrBursts::12                 0                       # Per bank write bursts
system.mem_ctrl.perBankWrBursts::13                 0                       # Per bank write bursts
system.mem_ctrl.perBankWrBursts::14                 0                       # Per bank write bursts
system.mem_ctrl.perBankWrBursts::15                 0                       # Per bank write bursts
system.mem_ctrl.avgRdQLen                        0.00                       # Average read queue length when enqueuing
system.mem_ctrl.avgWrQLen                        0.00                       # Average write queue length when enqueuing
system.mem_ctrl.totQLat                             0                       # Total ticks spent queuing
system.mem_ctrl.totBusLat                           0                       # Total ticks spent in databus transfers
system.mem_ctrl.totMemAccLat                        0                       # Total ticks spent from burst creation until serviced by the DRAM
system.mem_ctrl.avgQLat                           nan                       # Average queueing delay per DRAM burst
system.mem_ctrl.avgBusLat                         nan                       # Average bus latency per DRAM burst
system.mem_ctrl.avgMemAccLat                      nan                       # Average memory access latency per DRAM burst
system.mem_ctrl.numRdRetry                          0                       # Number of times read queue was full causing retry
system.mem_ctrl.numWrRetry                          0                       # Number of times write queue was full causing retry
system.mem_ctrl.readRowHits                         0                       # Number of row buffer hits during reads
system.mem_ctrl.writeRowHits                        0                       # Number of row buffer hits during writes
system.mem_ctrl.readRowHitRate                    nan                       # Row buffer hit rate for reads
system.mem_ctrl.writeRowHitRate                   nan                       # Row buffer hit rate for writes
system.mem_ctrl.readPktSize::0                      0                       # Read request sizes (log2)
system.mem_ctrl.readPktSize::1                      0                       # Read request sizes (log2)
system.mem_ctrl.readPktSize::2                      0                       # Read request sizes (log2)
system.mem_ctrl.readPktSize::3                      0                       # Read request sizes (log2)
system.mem_ctrl.readPktSize::4                      0                       # Read request sizes (log2)
system.mem_ctrl.readPktSize::5                      0                       # Read request sizes (log2)
system.mem_ctrl.readPktSize::6                      0                       # Read request sizes (log2)
system.mem_ctrl.writePktSize::0                     0                       # Write request sizes (log2)
system.mem_ctrl.writePktSize::1                     0                       # Write request sizes (log2)
system.mem_ctrl.writePktSize::2                     0                       # Write request sizes (log2)
system.mem_ctrl.writePktSize::3                     0                       # Write request sizes (log2)
system.mem_ctrl.writePktSize::4                     0                       # Write request sizes (log2)
system.mem_ctrl.writePktSize::5                     0                       # Write request sizes (log2)
system.mem_ctrl.writePktSize::6                     0                       # Write request sizes (log2)
system.mem_ctrl.rdQLenPdf::0                        0                       # What read queue length does an incoming req see
system.mem_ctrl.rdQLenPdf::1                        0                       # What read queue length does an incoming req see
system.mem_ctrl.rdQLenPdf::2                        0                       # What read queue length does an incoming req see
system.mem_ctrl.rdQLenPdf::3                        0                       # What read queue length does an incoming req see
system.mem_ctrl.rdQLenPdf::4                        0                       # What read queue length does an incoming req see
system.mem_ctrl.rdQLenPdf::5                        0                       # What read queue length does an incoming req see
system.mem_ctrl.rdQLenPdf::6                        0                       # What read queue length does an incoming req see
system.mem_ctrl.rdQLenPdf::7                        0                       # What read queue length does an incoming req see
system.mem_ctrl.rdQLenPdf::8                        0                       # What read queue length does an incoming req see
system.mem_ctrl.rdQLenPdf::9                        0                       # What read queue length does an incoming req see
system.mem_ctrl.rdQLenPdf::10                       0                       # What read queue length does an incoming req see
system.mem_ctrl.rdQLenPdf::11                       0                       # What read queue length does an incoming req see
system.mem_ctrl.rdQLenPdf::12                       0                       # What read queue length does an incoming req see
system.mem_ctrl.rdQLenPdf::13                       0                       # What read queue length does an incoming req see
system.mem_ctrl.rdQLenPdf::14                       0                       # What read queue length does an incoming req see
system.mem_ctrl.rdQLenPdf::15                       0                       # What read queue length does an incoming req see
system.mem_ctrl.rdQLenPdf::16                       0                       # What read queue length does an incoming req see
system.mem_ctrl.rdQLenPdf::17                       0                       # What read queue length does an incoming req see
system.mem_ctrl.rdQLenPdf::18                       0                       # What read queue length does an incoming req see
system.mem_ctrl.rdQLenPdf::19                       0                       # What read queue length does an incoming req see
system.mem_ctrl.rdQLenPdf::20                       0                       # What read queue length does an incoming req see
system.mem_ctrl.rdQLenPdf::21                       0                       # What read queue length does an incoming req see
system.mem_ctrl.rdQLenPdf::22                       0                       # What read queue length does an incoming req see
system.mem_ctrl.rdQLenPdf::23                       0                       # What read queue length does an incoming req see
system.mem_ctrl.rdQLenPdf::24                       0                       # What read queue length does an incoming req see
system.mem_ctrl.rdQLenPdf::25                       0                       # What read queue length does an incoming req see
system.mem_ctrl.rdQLenPdf::26                       0                       # What read queue length does an incoming req see
system.mem_ctrl.rdQLenPdf::27                       0                       # What read queue length does an incoming req see
system.mem_ctrl.rdQLenPdf::28                       0                       # What read queue length does an incoming req see
system.mem_ctrl.rdQLenPdf::29                       0                       # What read queue length does an incoming req see
system.mem_ctrl.rdQLenPdf::30                       0                       # What read queue length does an incoming req see
system.mem_ctrl.rdQLenPdf::31                       0                       # What read queue length does an incoming req see
system.mem_ctrl.wrQLenPdf::0                        0                       # What write queue length does an incoming req see
system.mem_ctrl.wrQLenPdf::1                        0                       # What write queue length does an incoming req see
system.mem_ctrl.wrQLenPdf::2                        0                       # What write queue length does an incoming req see
system.mem_ctrl.wrQLenPdf::3                        0                       # What write queue length does an incoming req see
system.mem_ctrl.wrQLenPdf::4                        0                       # What write queue length does an incoming req see
system.mem_ctrl.wrQLenPdf::5                        0                       # What write queue length does an incoming req see
system.mem_ctrl.wrQLenPdf::6                        0                       # What write queue length does an incoming req see
system.mem_ctrl.wrQLenPdf::7                        0                       # What write queue length does an incoming req see
system.mem_ctrl.wrQLenPdf::8                        0                       # What write queue length does an incoming req see
system.mem_ctrl.wrQLenPdf::9                        0                       # What write queue length does an incoming req see
system.mem_ctrl.wrQLenPdf::10                       0                       # What write queue length does an incoming req see
system.mem_ctrl.wrQLenPdf::11                       0                       # What write queue length does an incoming req see
system.mem_ctrl.wrQLenPdf::12                       0                       # What write queue length does an incoming req see
system.mem_ctrl.wrQLenPdf::13                       0                       # What write queue length does an incoming req see
system.mem_ctrl.wrQLenPdf::14                       0                       # What write queue length does an incoming req see
system.mem_ctrl.wrQLenPdf::15                       0                       # What write queue length does an incoming req see
system.mem_ctrl.wrQLenPdf::16                       0                       # What write queue length does an incoming req see
system.mem_ctrl.wrQLenPdf::17                       0                       # What write queue length does an incoming req see
system.mem_ctrl.wrQLenPdf::18                       0                       # What write queue length does an incoming req see
system.mem_ctrl.wrQLenPdf::19                       0                       # What write queue length does an incoming req see
system.mem_ctrl.wrQLenPdf::20                       0                       # What write queue length does an incoming req see
system.mem_ctrl.wrQLenPdf::21                       0                       # What write queue length does an incoming req see
system.mem_ctrl.wrQLenPdf::22                       0                       # What write queue length does an incoming req see
system.mem_ctrl.wrQLenPdf::23                       0                       # What write queue length does an incoming req see
system.mem_ctrl.wrQLenPdf::24                       0                       # What write queue length does an incoming req see
system.mem_ctrl.wrQLenPdf::25                       0                       # What write queue length does an incoming req see
system.mem_ctrl.wrQLenPdf::26                       0                       # What write queue length does an incoming req see
system.mem_ctrl.wrQLenPdf::27                       0                       # What write queue length does an incoming req see
system.mem_ctrl.wrQLenPdf::28                       0                       # What write queue length does an incoming req see
system.mem_ctrl.wrQLenPdf::29                       0                       # What write queue length does an incoming req see
system.mem_ctrl.wrQLenPdf::30                       0                       # What write queue length does an incoming req see
system.mem_ctrl.wrQLenPdf::31                       0                       # What write queue length does an incoming req see
system.mem_ctrl.wrQLenPdf::32                       0                       # What write queue length does an incoming req see
system.mem_ctrl.wrQLenPdf::33                       0                       # What write queue length does an incoming req see
system.mem_ctrl.wrQLenPdf::34                       0                       # What write queue length does an incoming req see
system.mem_ctrl.wrQLenPdf::35                       0                       # What write queue length does an incoming req see
system.mem_ctrl.wrQLenPdf::36                       0                       # What write queue length does an incoming req see
system.mem_ctrl.wrQLenPdf::37                       0                       # What write queue length does an incoming req see
system.mem_ctrl.wrQLenPdf::38                       0                       # What write queue length does an incoming req see
system.mem_ctrl.wrQLenPdf::39                       0                       # What write queue length does an incoming req see
system.mem_ctrl.wrQLenPdf::40                       0                       # What write queue length does an incoming req see
system.mem_ctrl.wrQLenPdf::41                       0                       # What write queue length does an incoming req see
system.mem_ctrl.wrQLenPdf::42                       0                       # What write queue length does an incoming req see
system.mem_ctrl.wrQLenPdf::43                       0                       # What write queue length does an incoming req see
system.mem_ctrl.wrQLenPdf::44                       0                       # What write queue length does an incoming req see
system.mem_ctrl.wrQLenPdf::45                       0                       # What write queue length does an incoming req see
system.mem_ctrl.wrQLenPdf::46                       0                       # What write queue length does an incoming req see
system.mem_ctrl.wrQLenPdf::47                       0                       # What write queue length does an incoming req see
system.mem_ctrl.wrQLenPdf::48                       0                       # What write queue length does an incoming req see
system.mem_ctrl.wrQLenPdf::49                       0                       # What write queue length does an incoming req see
system.mem_ctrl.wrQLenPdf::50                       0                       # What write queue length does an incoming req see
system.mem_ctrl.wrQLenPdf::51                       0                       # What write queue length does an incoming req see
system.mem_ctrl.wrQLenPdf::52                       0                       # What write queue length does an incoming req see
system.mem_ctrl.wrQLenPdf::53                       0                       # What write queue length does an incoming req see
system.mem_ctrl.wrQLenPdf::54                       0                       # What write queue length does an incoming req see
system.mem_ctrl.wrQLenPdf::55                       0                       # What write queue length does an incoming req see
system.mem_ctrl.wrQLenPdf::56                       0                       # What write queue length does an incoming req see
system.mem_ctrl.wrQLenPdf::57                       0                       # What write queue length does an incoming req see
system.mem_ctrl.wrQLenPdf::58                       0                       # What write queue length does an incoming req see
system.mem_ctrl.wrQLenPdf::59                       0                       # What write queue length does an incoming req see
system.mem_ctrl.wrQLenPdf::60                       0                       # What write queue length does an incoming req see
system.mem_ctrl.wrQLenPdf::61                       0                       # What write queue length does an incoming req see
system.mem_ctrl.wrQLenPdf::62                       0                       # What write queue length does an incoming req see
system.mem_ctrl.wrQLenPdf::63                       0                       # What write queue length does an incoming req see
system.mem_ctrl.bytesReadDRAM                       0                       # Total number of bytes read from DRAM
system.mem_ctrl.bytesReadWrQ                        0                       # Total number of bytes read from write queue
system.mem_ctrl.bytesWritten                        0                       # Total number of bytes written to DRAM
system.mem_ctrl.bytesReadSys                        0                       # Total read bytes from the system interface side
system.mem_ctrl.bytesWrittenSys                     0                       # Total written bytes from the system interface side
system.mem_ctrl.avgRdBW                          0.00                       # Average DRAM read bandwidth in MiByte/s
system.mem_ctrl.avgWrBW                          0.00                       # Average achieved write bandwidth in MiByte/s
system.mem_ctrl.avgRdBWSys                       0.00                       # Average system read bandwidth in MiByte/s
system.mem_ctrl.avgWrBWSys                       0.00                       # Average system write bandwidth in MiByte/s
system.mem_ctrl.peakBW                       12800.00                       # Theoretical peak bandwidth in MiByte/s
system.mem_ctrl.busUtil                          0.00                       # Data bus utilization in percentage
system.mem_ctrl.busUtilRead                      0.00                       # Data bus utilization in percentage for reads
system.mem_ctrl.busUtilWrite                     0.00                       # Data bus utilization in percentage for writes
system.mem_ctrl.totGap                              0                       # Total gap between requests
system.mem_ctrl.avgGap                            nan                       # Average gap between requests
system.mem_ctrl.pageHitRate                       nan                       # Row buffer hit rate, read and write combined
system.mem_ctrl.power_state.pwrStateResidencyTicks::UNDEFINED 220327384000                       # Cumulative time (in ticks) in various power states
system.mem_ctrl.rank0.actEnergy                     0                       # Energy for activate commands per rank (pJ)
system.mem_ctrl.rank0.preEnergy                     0                       # Energy for precharge commands per rank (pJ)
system.mem_ctrl.rank0.readEnergy                    0                       # Energy for read commands per rank (pJ)
system.mem_ctrl.rank0.writeEnergy                   0                       # Energy for write commands per rank (pJ)
system.mem_ctrl.rank0.refreshEnergy                 0                       # Energy for refresh commands per rank (pJ)
system.mem_ctrl.rank0.actBackEnergy                 0                       # Energy for active background per rank (pJ)
system.mem_ctrl.rank0.preBackEnergy       84605715840                       # Energy for precharge background per rank (pJ)
system.mem_ctrl.rank0.actPowerDownEnergy            0                       # Energy for active power-down per rank (pJ)
system.mem_ctrl.rank0.prePowerDownEnergy            0                       # Energy for precharge power-down per rank (pJ)
system.mem_ctrl.rank0.selfRefreshEnergy             0                       # Energy for self refresh per rank (pJ)
system.mem_ctrl.rank0.totalEnergy         84605715840                       # Total energy per rank (pJ)
system.mem_ctrl.rank0.averagePower         384.000002                       # Core power per rank (mW)
system.mem_ctrl.rank0.totalIdleTime                 0                       # Total Idle time Per DRAM Rank
system.mem_ctrl.rank0.memoryStateTime::IDLE 220327384000                       # Time in different power states
system.mem_ctrl.rank0.memoryStateTime::REF            0                       # Time in different power states
system.mem_ctrl.rank0.memoryStateTime::SREF            0                       # Time in different power states
system.mem_ctrl.rank0.memoryStateTime::PRE_PDN            0                       # Time in different power states
system.mem_ctrl.rank0.memoryStateTime::ACT            0                       # Time in different power states
system.mem_ctrl.rank0.memoryStateTime::ACT_PDN            0                       # Time in different power states
system.mem_ctrl.rank1.actEnergy                     0                       # Energy for activate commands per rank (pJ)
system.mem_ctrl.rank1.preEnergy                     0                       # Energy for precharge commands per rank (pJ)
system.mem_ctrl.rank1.readEnergy                    0                       # Energy for read commands per rank (pJ)
system.mem_ctrl.rank1.writeEnergy                   0                       # Energy for write commands per rank (pJ)
system.mem_ctrl.rank1.refreshEnergy                 0                       # Energy for refresh commands per rank (pJ)
system.mem_ctrl.rank1.actBackEnergy                 0                       # Energy for active background per rank (pJ)
system.mem_ctrl.rank1.preBackEnergy       84605715840                       # Energy for precharge background per rank (pJ)
system.mem_ctrl.rank1.actPowerDownEnergy            0                       # Energy for active power-down per rank (pJ)
system.mem_ctrl.rank1.prePowerDownEnergy            0                       # Energy for precharge power-down per rank (pJ)
system.mem_ctrl.rank1.selfRefreshEnergy             0                       # Energy for self refresh per rank (pJ)
system.mem_ctrl.rank1.totalEnergy         84605715840                       # Total energy per rank (pJ)
system.mem_ctrl.rank1.averagePower         384.000002                       # Core power per rank (mW)
system.mem_ctrl.rank1.totalIdleTime                 0                       # Total Idle time Per DRAM Rank
system.mem_ctrl.rank1.memoryStateTime::IDLE 220327384000                       # Time in different power states
system.mem_ctrl.rank1.memoryStateTime::REF            0                       # Time in different power states
system.mem_ctrl.rank1.memoryStateTime::SREF            0                       # Time in different power states
system.mem_ctrl.rank1.memoryStateTime::PRE_PDN            0                       # Time in different power states
system.mem_ctrl.rank1.memoryStateTime::ACT            0                       # Time in different power states
system.mem_ctrl.rank1.memoryStateTime::ACT_PDN            0                       # Time in different power states
system.membus.trans_dist::ReadResp              10192                       # Transaction distribution
system.membus.trans_dist::WritebackDirty      8292060                       # Transaction distribution
system.membus.trans_dist::CleanEvict             4127                       # Transaction distribution
system.membus.trans_dist::ReadExReq           8290122                       # Transaction distribution
system.membus.trans_dist::ReadExResp          8290122                       # Transaction distribution
system.membus.trans_dist::ReadSharedReq         10192                       # Transaction distribution
system.membus.pkt_count_system.l2cache.mem_side::system.mem_ctrl.port     24896815                       # Packet count per connected master and slave (bytes)
system.membus.pkt_count_system.l2cache.mem_side::total     24896815                       # Packet count per connected master and slave (bytes)
system.membus.pkt_count::total               24896815                       # Packet count per connected master and slave (bytes)
system.membus.pkt_size_system.l2cache.mem_side::system.mem_ctrl.port   1061911936                       # Cumulative packet size per connected master and slave (bytes)
system.membus.pkt_size_system.l2cache.mem_side::total   1061911936                       # Cumulative packet size per connected master and slave (bytes)
system.membus.pkt_size::total              1061911936                       # Cumulative packet size per connected master and slave (bytes)
system.membus.snoops                                0                       # Total snoops (count)
system.membus.snoopTraffic                          0                       # Total snoop traffic (bytes)
system.membus.snoop_fanout::samples           8300314                       # Request fanout histogram
system.membus.snoop_fanout::mean                    0                       # Request fanout histogram
system.membus.snoop_fanout::stdev                   0                       # Request fanout histogram
system.membus.snoop_fanout::underflows              0      0.00%      0.00% # Request fanout histogram
system.membus.snoop_fanout::0                 8300314    100.00%    100.00% # Request fanout histogram
system.membus.snoop_fanout::1                       0      0.00%    100.00% # Request fanout histogram
system.membus.snoop_fanout::overflows               0      0.00%    100.00% # Request fanout histogram
system.membus.snoop_fanout::min_value               0                       # Request fanout histogram
system.membus.snoop_fanout::max_value               0                       # Request fanout histogram
system.membus.snoop_fanout::total             8300314                       # Request fanout histogram
system.membus.power_state.pwrStateResidencyTicks::UNDEFINED 220327384000                       # Cumulative time (in ticks) in various power states

---------- End Simulation Statistics   ----------
