
---------- Begin Simulation Statistics ----------
final_tick                               168671539000                       # Number of ticks from beginning of simulation (restored from checkpoints and never reset)
host_inst_rate                                1806238                       # Simulator instruction rate (inst/s)
host_mem_usage                                1139788                       # Number of bytes of host memory used
host_op_rate                                  2339058                       # Simulator op (including micro ops) rate (op/s)
host_seconds                                    55.36                       # Real time elapsed on the host
host_tick_rate                             3046604737                       # Simulator tick rate (ticks/s)
sim_freq                                 1000000000000                       # Frequency of simulated ticks
sim_insts                                   100000001                       # Number of instructions simulated
sim_ops                                     129499036                       # Number of ops (including micro ops) simulated
sim_seconds                                  0.168672                       # Number of seconds simulated
sim_ticks                                168671539000                       # Number of ticks simulated
system.cpu.Branches                           5604603                       # Number of branches fetched
system.cpu.committedInsts                   100000001                       # Number of instructions committed
system.cpu.committedOps                     129499036                       # Number of ops (including micro ops) committed
system.cpu.dtb.rdAccesses                    44077197                       # TLB accesses on read requests
system.cpu.dtb.rdMisses                           157                       # TLB misses on read requests
system.cpu.dtb.wrAccesses                     7188712                       # TLB accesses on write requests
system.cpu.dtb.wrMisses                           151                       # TLB misses on write requests
system.cpu.idle_fraction                            0                       # Percentage of idle cycles
system.cpu.itb.rdAccesses                           0                       # TLB accesses on read requests
system.cpu.itb.rdMisses                             0                       # TLB misses on read requests
system.cpu.itb.wrAccesses                   139172605                       # TLB accesses on write requests
system.cpu.itb.wrMisses                            97                       # TLB misses on write requests
system.cpu.not_idle_fraction                        1                       # Percentage of non-idle cycles
system.cpu.numCycles                        168671640                       # number of cpu cycles simulated
system.cpu.numWorkItemsCompleted                    0                       # number of work items this cpu completed
system.cpu.numWorkItemsStarted                      0                       # number of work items this cpu started
system.cpu.num_busy_cycles                  168671640                       # Number of busy cycles
system.cpu.num_cc_register_reads             37893142                       # number of times the CC registers were read
system.cpu.num_cc_register_writes            52190787                       # number of times the CC registers were written
system.cpu.num_conditional_control_insts      5122265                       # number of instructions that are conditional controls
system.cpu.num_fp_alu_accesses                5769232                       # Number of float alu accesses
system.cpu.num_fp_insts                       5769232                       # number of float instructions
system.cpu.num_fp_register_reads              4656151                       # number of times the floating registers were read
system.cpu.num_fp_register_writes             4951571                       # number of times the floating registers were written
system.cpu.num_func_calls                      317849                       # number of times a function call or return occured
system.cpu.num_idle_cycles                          0                       # Number of idle cycles
system.cpu.num_int_alu_accesses             125465326                       # Number of integer alu accesses
system.cpu.num_int_insts                    125465326                       # number of integer instructions
system.cpu.num_int_register_reads           293934706                       # number of times the integer registers were read
system.cpu.num_int_register_writes          114069077                       # number of times the integer registers were written
system.cpu.num_load_insts                    43773634                       # Number of load instructions
system.cpu.num_mem_refs                      50962298                       # number of memory refs
system.cpu.num_store_insts                    7188664                       # Number of store instructions
system.cpu.num_vec_alu_accesses                     0                       # Number of vector alu accesses
system.cpu.num_vec_insts                            0                       # number of vector instructions
system.cpu.num_vec_register_reads                   0                       # number of times the vector registers were read
system.cpu.num_vec_register_writes                  0                       # number of times the vector registers were written
system.cpu.op_class::No_OpClass                333986      0.26%      0.26% # Class of executed instruction
system.cpu.op_class::IntAlu                  73072159     56.43%     56.68% # Class of executed instruction
system.cpu.op_class::IntMult                   130168      0.10%     56.79% # Class of executed instruction
system.cpu.op_class::IntDiv                   1267378      0.98%     57.76% # Class of executed instruction
system.cpu.op_class::FloatAdd                 1986164      1.53%     59.30% # Class of executed instruction
system.cpu.op_class::FloatCmp                       0      0.00%     59.30% # Class of executed instruction
system.cpu.op_class::FloatCvt                       0      0.00%     59.30% # Class of executed instruction
system.cpu.op_class::FloatMult                      0      0.00%     59.30% # Class of executed instruction
system.cpu.op_class::FloatMultAcc                   0      0.00%     59.30% # Class of executed instruction
system.cpu.op_class::FloatDiv                       0      0.00%     59.30% # Class of executed instruction
system.cpu.op_class::FloatMisc                      0      0.00%     59.30% # Class of executed instruction
system.cpu.op_class::FloatSqrt                      0      0.00%     59.30% # Class of executed instruction
system.cpu.op_class::SimdAdd                      544      0.00%     59.30% # Class of executed instruction
system.cpu.op_class::SimdAddAcc                     0      0.00%     59.30% # Class of executed instruction
system.cpu.op_class::SimdAlu                   163912      0.13%     59.42% # Class of executed instruction
system.cpu.op_class::SimdCmp                      222      0.00%     59.42% # Class of executed instruction
system.cpu.op_class::SimdCvt                   181616      0.14%     59.57% # Class of executed instruction
system.cpu.op_class::SimdMisc                  403609      0.31%     59.88% # Class of executed instruction
system.cpu.op_class::SimdMult                       0      0.00%     59.88% # Class of executed instruction
system.cpu.op_class::SimdMultAcc                    0      0.00%     59.88% # Class of executed instruction
system.cpu.op_class::SimdShift                    174      0.00%     59.88% # Class of executed instruction
system.cpu.op_class::SimdShiftAcc                   0      0.00%     59.88% # Class of executed instruction
system.cpu.op_class::SimdDiv                        0      0.00%     59.88% # Class of executed instruction
system.cpu.op_class::SimdSqrt                       0      0.00%     59.88% # Class of executed instruction
system.cpu.op_class::SimdFloatAdd              337607      0.26%     60.14% # Class of executed instruction
system.cpu.op_class::SimdFloatAlu                   0      0.00%     60.14% # Class of executed instruction
system.cpu.op_class::SimdFloatCmp                   0      0.00%     60.14% # Class of executed instruction
system.cpu.op_class::SimdFloatCvt              543454      0.42%     60.56% # Class of executed instruction
system.cpu.op_class::SimdFloatDiv               63386      0.05%     60.61% # Class of executed instruction
system.cpu.op_class::SimdFloatMisc                  0      0.00%     60.61% # Class of executed instruction
system.cpu.op_class::SimdFloatMult              52425      0.04%     60.65% # Class of executed instruction
system.cpu.op_class::SimdFloatMultAcc               0      0.00%     60.65% # Class of executed instruction
system.cpu.op_class::SimdFloatSqrt                  0      0.00%     60.65% # Class of executed instruction
system.cpu.op_class::SimdReduceAdd                  0      0.00%     60.65% # Class of executed instruction
system.cpu.op_class::SimdReduceAlu                  0      0.00%     60.65% # Class of executed instruction
system.cpu.op_class::SimdReduceCmp                  0      0.00%     60.65% # Class of executed instruction
system.cpu.op_class::SimdFloatReduceAdd             0      0.00%     60.65% # Class of executed instruction
system.cpu.op_class::SimdFloatReduceCmp             0      0.00%     60.65% # Class of executed instruction
system.cpu.op_class::SimdAes                        0      0.00%     60.65% # Class of executed instruction
system.cpu.op_class::SimdAesMix                     0      0.00%     60.65% # Class of executed instruction
system.cpu.op_class::SimdSha1Hash                   0      0.00%     60.65% # Class of executed instruction
system.cpu.op_class::SimdSha1Hash2                  0      0.00%     60.65% # Class of executed instruction
system.cpu.op_class::SimdSha256Hash                 0      0.00%     60.65% # Class of executed instruction
system.cpu.op_class::SimdSha256Hash2                0      0.00%     60.65% # Class of executed instruction
system.cpu.op_class::SimdShaSigma2                  0      0.00%     60.65% # Class of executed instruction
system.cpu.op_class::SimdShaSigma3                  0      0.00%     60.65% # Class of executed instruction
system.cpu.op_class::SimdPredAlu                    0      0.00%     60.65% # Class of executed instruction
system.cpu.op_class::MemRead                 42298190     32.66%     93.31% # Class of executed instruction
system.cpu.op_class::MemWrite                 6811524      5.26%     98.57% # Class of executed instruction
system.cpu.op_class::FloatMemRead             1475444      1.14%     99.71% # Class of executed instruction
system.cpu.op_class::FloatMemWrite             377140      0.29%    100.00% # Class of executed instruction
system.cpu.op_class::IprAccess                      0      0.00%    100.00% # Class of executed instruction
system.cpu.op_class::InstPrefetch                   0      0.00%    100.00% # Class of executed instruction
system.cpu.op_class::total                  129499102                       # Class of executed instruction
system.cpu.workload.numSyscalls                    34                       # Number of system calls
system.l2bus.snoop_filter.hit_multi_requests            1                       # Number of requests hitting in the snoop filter with multiple (>1) holders of the requested data.
system.l2bus.snoop_filter.hit_multi_snoops            0                       # Number of snoops hitting in the snoop filter with multiple (>1) holders of the requested data.
system.l2bus.snoop_filter.hit_single_requests        89642                       # Number of requests hitting in the snoop filter with a single holder of the requested data.
system.l2bus.snoop_filter.hit_single_snoops          311                       # Number of snoops hitting in the snoop filter with a single holder of the requested data.
system.l2bus.snoop_filter.tot_requests         180564                       # Total number of requests made to the snoop filter.
system.l2bus.snoop_filter.tot_snoops              311                       # Total number of snoops made to the snoop filter.
system.membus.snoop_filter.hit_multi_requests            0                       # Number of requests hitting in the snoop filter with multiple (>1) holders of the requested data.
system.membus.snoop_filter.hit_multi_snoops            0                       # Number of snoops hitting in the snoop filter with multiple (>1) holders of the requested data.
system.membus.snoop_filter.hit_single_requests         2291                       # Number of requests hitting in the snoop filter with a single holder of the requested data.
system.membus.snoop_filter.hit_single_snoops            0                       # Number of snoops hitting in the snoop filter with a single holder of the requested data.
system.membus.snoop_filter.tot_requests          8781                       # Total number of requests made to the snoop filter.
system.membus.snoop_filter.tot_snoops               0                       # Total number of snoops made to the snoop filter.
system.clk_domain.clock                          1000                       # Clock period in ticks
system.clk_domain.voltage_domain.voltage            1                       # Voltage in Volts
system.cpu.dcache.demand_hits::.cpu.data     51179930                       # number of demand (read+write) hits
system.cpu.dcache.demand_hits::total         51179930                       # number of demand (read+write) hits
system.cpu.dcache.overall_hits::.cpu.data     51180049                       # number of overall hits
system.cpu.dcache.overall_hits::total        51180049                       # number of overall hits
system.cpu.dcache.demand_misses::.cpu.data        83689                       # number of demand (read+write) misses
system.cpu.dcache.demand_misses::total          83689                       # number of demand (read+write) misses
system.cpu.dcache.overall_misses::.cpu.data        85692                       # number of overall misses
system.cpu.dcache.overall_misses::total         85692                       # number of overall misses
system.cpu.dcache.demand_accesses::.cpu.data     51263619                       # number of demand (read+write) accesses
system.cpu.dcache.demand_accesses::total     51263619                       # number of demand (read+write) accesses
system.cpu.dcache.overall_accesses::.cpu.data     51265741                       # number of overall (read+write) accesses
system.cpu.dcache.overall_accesses::total     51265741                       # number of overall (read+write) accesses
system.cpu.dcache.demand_miss_rate::.cpu.data     0.001633                       # miss rate for demand accesses
system.cpu.dcache.demand_miss_rate::total     0.001633                       # miss rate for demand accesses
system.cpu.dcache.overall_miss_rate::.cpu.data     0.001672                       # miss rate for overall accesses
system.cpu.dcache.overall_miss_rate::total     0.001672                       # miss rate for overall accesses
system.cpu.dcache.blocked_cycles::no_mshrs            0                       # number of cycles access was blocked
system.cpu.dcache.blocked_cycles::no_targets            0                       # number of cycles access was blocked
system.cpu.dcache.blocked::no_mshrs                 0                       # number of cycles access was blocked
system.cpu.dcache.blocked::no_targets               0                       # number of cycles access was blocked
system.cpu.dcache.avg_blocked_cycles::no_mshrs          nan                       # average number of cycles each access was blocked
system.cpu.dcache.avg_blocked_cycles::no_targets          nan                       # average number of cycles each access was blocked
system.cpu.dcache.writebacks::.writebacks        80581                       # number of writebacks
system.cpu.dcache.writebacks::total             80581                       # number of writebacks
system.cpu.dcache.replacements                  84668                       # number of replacements
system.cpu.dcache.ReadReq_hits::.cpu.data     44053237                       # number of ReadReq hits
system.cpu.dcache.ReadReq_hits::total        44053237                       # number of ReadReq hits
system.cpu.dcache.ReadReq_misses::.cpu.data        21736                       # number of ReadReq misses
system.cpu.dcache.ReadReq_misses::total         21736                       # number of ReadReq misses
system.cpu.dcache.ReadReq_accesses::.cpu.data     44074973                       # number of ReadReq accesses(hits+misses)
system.cpu.dcache.ReadReq_accesses::total     44074973                       # number of ReadReq accesses(hits+misses)
system.cpu.dcache.ReadReq_miss_rate::.cpu.data     0.000493                       # miss rate for ReadReq accesses
system.cpu.dcache.ReadReq_miss_rate::total     0.000493                       # miss rate for ReadReq accesses
system.cpu.dcache.WriteReq_hits::.cpu.data      7126693                       # number of WriteReq hits
system.cpu.dcache.WriteReq_hits::total        7126693                       # number of WriteReq hits
system.cpu.dcache.WriteReq_misses::.cpu.data        61953                       # number of WriteReq misses
system.cpu.dcache.WriteReq_misses::total        61953                       # number of WriteReq misses
system.cpu.dcache.WriteReq_accesses::.cpu.data      7188646                       # number of WriteReq accesses(hits+misses)
system.cpu.dcache.WriteReq_accesses::total      7188646                       # number of WriteReq accesses(hits+misses)
system.cpu.dcache.WriteReq_miss_rate::.cpu.data     0.008618                       # miss rate for WriteReq accesses
system.cpu.dcache.WriteReq_miss_rate::total     0.008618                       # miss rate for WriteReq accesses
system.cpu.dcache.SoftPFReq_hits::.cpu.data          119                       # number of SoftPFReq hits
system.cpu.dcache.SoftPFReq_hits::total           119                       # number of SoftPFReq hits
system.cpu.dcache.SoftPFReq_misses::.cpu.data         2003                       # number of SoftPFReq misses
system.cpu.dcache.SoftPFReq_misses::total         2003                       # number of SoftPFReq misses
system.cpu.dcache.SoftPFReq_accesses::.cpu.data         2122                       # number of SoftPFReq accesses(hits+misses)
system.cpu.dcache.SoftPFReq_accesses::total         2122                       # number of SoftPFReq accesses(hits+misses)
system.cpu.dcache.SoftPFReq_miss_rate::.cpu.data     0.943921                       # miss rate for SoftPFReq accesses
system.cpu.dcache.SoftPFReq_miss_rate::total     0.943921                       # miss rate for SoftPFReq accesses
system.cpu.dcache.power_state.pwrStateResidencyTicks::UNDEFINED 168671539000                       # Cumulative time (in ticks) in various power states
system.cpu.dcache.tags.tagsinuse          1019.887518                       # Cycle average of tags in use
system.cpu.dcache.tags.total_refs            51265741                       # Total number of references to valid blocks.
system.cpu.dcache.tags.sampled_refs             85692                       # Sample count of references to valid blocks.
system.cpu.dcache.tags.avg_refs            598.255858                       # Average number of references to valid blocks.
system.cpu.dcache.tags.warmup_cycle              2000                       # Cycle when the warmup percentage was hit.
system.cpu.dcache.tags.occ_blocks::.cpu.data  1019.887518                       # Average occupied blocks per requestor
system.cpu.dcache.tags.occ_percent::.cpu.data     0.995984                       # Average percentage of cache occupancy
system.cpu.dcache.tags.occ_percent::total     0.995984                       # Average percentage of cache occupancy
system.cpu.dcache.tags.occ_task_id_blocks::1024         1024                       # Occupied blocks per task id
system.cpu.dcache.tags.age_task_id_blocks_1024::0            4                       # Occupied blocks per task id
system.cpu.dcache.tags.age_task_id_blocks_1024::1           30                       # Occupied blocks per task id
system.cpu.dcache.tags.age_task_id_blocks_1024::2          238                       # Occupied blocks per task id
system.cpu.dcache.tags.age_task_id_blocks_1024::3          684                       # Occupied blocks per task id
system.cpu.dcache.tags.age_task_id_blocks_1024::4           68                       # Occupied blocks per task id
system.cpu.dcache.tags.occ_task_id_percent::1024            1                       # Percentage of cache occupancy per task id
system.cpu.dcache.tags.tag_accesses         102617174                       # Number of tag accesses
system.cpu.dcache.tags.data_accesses        102617174                       # Number of data accesses
system.cpu.dcache.tags.power_state.pwrStateResidencyTicks::UNDEFINED 168671539000                       # Cumulative time (in ticks) in various power states
system.cpu.dtb.walker.power_state.pwrStateResidencyTicks::UNDEFINED 168671539000                       # Cumulative time (in ticks) in various power states
system.cpu.icache.demand_hits::.cpu.inst    139167375                       # number of demand (read+write) hits
system.cpu.icache.demand_hits::total        139167375                       # number of demand (read+write) hits
system.cpu.icache.overall_hits::.cpu.inst    139167375                       # number of overall hits
system.cpu.icache.overall_hits::total       139167375                       # number of overall hits
system.cpu.icache.demand_misses::.cpu.inst         5230                       # number of demand (read+write) misses
system.cpu.icache.demand_misses::total           5230                       # number of demand (read+write) misses
system.cpu.icache.overall_misses::.cpu.inst         5230                       # number of overall misses
system.cpu.icache.overall_misses::total          5230                       # number of overall misses
system.cpu.icache.demand_accesses::.cpu.inst    139172605                       # number of demand (read+write) accesses
system.cpu.icache.demand_accesses::total    139172605                       # number of demand (read+write) accesses
system.cpu.icache.overall_accesses::.cpu.inst    139172605                       # number of overall (read+write) accesses
system.cpu.icache.overall_accesses::total    139172605                       # number of overall (read+write) accesses
system.cpu.icache.demand_miss_rate::.cpu.inst     0.000038                       # miss rate for demand accesses
system.cpu.icache.demand_miss_rate::total     0.000038                       # miss rate for demand accesses
system.cpu.icache.overall_miss_rate::.cpu.inst     0.000038                       # miss rate for overall accesses
system.cpu.icache.overall_miss_rate::total     0.000038                       # miss rate for overall accesses
system.cpu.icache.blocked_cycles::no_mshrs            0                       # number of cycles access was blocked
system.cpu.icache.blocked_cycles::no_targets            0                       # number of cycles access was blocked
system.cpu.icache.blocked::no_mshrs                 0                       # number of cycles access was blocked
system.cpu.icache.blocked::no_targets               0                       # number of cycles access was blocked
system.cpu.icache.avg_blocked_cycles::no_mshrs          nan                       # average number of cycles each access was blocked
system.cpu.icache.avg_blocked_cycles::no_targets          nan                       # average number of cycles each access was blocked
system.cpu.icache.replacements                   4974                       # number of replacements
system.cpu.icache.ReadReq_hits::.cpu.inst    139167375                       # number of ReadReq hits
system.cpu.icache.ReadReq_hits::total       139167375                       # number of ReadReq hits
system.cpu.icache.ReadReq_misses::.cpu.inst         5230                       # number of ReadReq misses
system.cpu.icache.ReadReq_misses::total          5230                       # number of ReadReq misses
system.cpu.icache.ReadReq_accesses::.cpu.inst    139172605                       # number of ReadReq accesses(hits+misses)
system.cpu.icache.ReadReq_accesses::total    139172605                       # number of ReadReq accesses(hits+misses)
system.cpu.icache.ReadReq_miss_rate::.cpu.inst     0.000038                       # miss rate for ReadReq accesses
system.cpu.icache.ReadReq_miss_rate::total     0.000038                       # miss rate for ReadReq accesses
system.cpu.icache.power_state.pwrStateResidencyTicks::UNDEFINED 168671539000                       # Cumulative time (in ticks) in various power states
system.cpu.icache.tags.tagsinuse           255.986154                       # Cycle average of tags in use
system.cpu.icache.tags.total_refs           139172605                       # Total number of references to valid blocks.
system.cpu.icache.tags.sampled_refs              5230                       # Sample count of references to valid blocks.
system.cpu.icache.tags.avg_refs          26610.440727                       # Average number of references to valid blocks.
system.cpu.icache.tags.warmup_cycle                 0                       # Cycle when the warmup percentage was hit.
system.cpu.icache.tags.occ_blocks::.cpu.inst   255.986154                       # Average occupied blocks per requestor
system.cpu.icache.tags.occ_percent::.cpu.inst     0.999946                       # Average percentage of cache occupancy
system.cpu.icache.tags.occ_percent::total     0.999946                       # Average percentage of cache occupancy
system.cpu.icache.tags.occ_task_id_blocks::1024          256                       # Occupied blocks per task id
system.cpu.icache.tags.age_task_id_blocks_1024::2           19                       # Occupied blocks per task id
system.cpu.icache.tags.age_task_id_blocks_1024::3            3                       # Occupied blocks per task id
system.cpu.icache.tags.age_task_id_blocks_1024::4          234                       # Occupied blocks per task id
system.cpu.icache.tags.occ_task_id_percent::1024            1                       # Percentage of cache occupancy per task id
system.cpu.icache.tags.tag_accesses         278350440                       # Number of tag accesses
system.cpu.icache.tags.data_accesses        278350440                       # Number of data accesses
system.cpu.icache.tags.power_state.pwrStateResidencyTicks::UNDEFINED 168671539000                       # Cumulative time (in ticks) in various power states
system.cpu.interrupts.clk_domain.clock          16000                       # Clock period in ticks
system.cpu.itb.walker.power_state.pwrStateResidencyTicks::UNDEFINED 168671539000                       # Cumulative time (in ticks) in various power states
system.cpu.power_state.numTransitions               1                       # Number of power state transitions
system.cpu.power_state.pwrStateResidencyTicks::ON 168671539000                       # Cumulative time (in ticks) in various power states
system.l2bus.trans_dist::ReadResp               28969                       # Transaction distribution
system.l2bus.trans_dist::WritebackDirty         80581                       # Transaction distribution
system.l2bus.trans_dist::CleanEvict              9061                       # Transaction distribution
system.l2bus.trans_dist::ReadExReq              61953                       # Transaction distribution
system.l2bus.trans_dist::ReadExResp             61953                       # Transaction distribution
system.l2bus.trans_dist::ReadSharedReq          28969                       # Transaction distribution
system.l2bus.pkt_count_system.cpu.icache.mem_side::system.l2cache.cpu_side        15434                       # Packet count per connected master and slave (bytes)
system.l2bus.pkt_count_system.cpu.dcache.mem_side::system.l2cache.cpu_side       256052                       # Packet count per connected master and slave (bytes)
system.l2bus.pkt_count::total                  271486                       # Packet count per connected master and slave (bytes)
system.l2bus.pkt_size_system.cpu.icache.mem_side::system.l2cache.cpu_side       334720                       # Cumulative packet size per connected master and slave (bytes)
system.l2bus.pkt_size_system.cpu.dcache.mem_side::system.l2cache.cpu_side     10641472                       # Cumulative packet size per connected master and slave (bytes)
system.l2bus.pkt_size::total                 10976192                       # Cumulative packet size per connected master and slave (bytes)
system.l2bus.snoops                              2513                       # Total snoops (count)
system.l2bus.snoopTraffic                       34176                       # Total snoop traffic (bytes)
system.l2bus.snoop_fanout::samples              93435                       # Request fanout histogram
system.l2bus.snoop_fanout::mean              0.003339                       # Request fanout histogram
system.l2bus.snoop_fanout::stdev             0.057690                       # Request fanout histogram
system.l2bus.snoop_fanout::underflows               0      0.00%      0.00% # Request fanout histogram
system.l2bus.snoop_fanout::0                    93123     99.67%     99.67% # Request fanout histogram
system.l2bus.snoop_fanout::1                      312      0.33%    100.00% # Request fanout histogram
system.l2bus.snoop_fanout::2                        0      0.00%    100.00% # Request fanout histogram
system.l2bus.snoop_fanout::overflows                0      0.00%    100.00% # Request fanout histogram
system.l2bus.snoop_fanout::min_value                0                       # Request fanout histogram
system.l2bus.snoop_fanout::max_value                1                       # Request fanout histogram
system.l2bus.snoop_fanout::total                93435                       # Request fanout histogram
system.l2bus.power_state.pwrStateResidencyTicks::UNDEFINED 168671539000                       # Cumulative time (in ticks) in various power states
system.l2cache.demand_hits::.cpu.inst            3732                       # number of demand (read+write) hits
system.l2cache.demand_hits::.cpu.data           80700                       # number of demand (read+write) hits
system.l2cache.demand_hits::total               84432                       # number of demand (read+write) hits
system.l2cache.overall_hits::.cpu.inst           3732                       # number of overall hits
system.l2cache.overall_hits::.cpu.data          80700                       # number of overall hits
system.l2cache.overall_hits::total              84432                       # number of overall hits
system.l2cache.demand_misses::.cpu.inst          1498                       # number of demand (read+write) misses
system.l2cache.demand_misses::.cpu.data          4992                       # number of demand (read+write) misses
system.l2cache.demand_misses::total              6490                       # number of demand (read+write) misses
system.l2cache.overall_misses::.cpu.inst         1498                       # number of overall misses
system.l2cache.overall_misses::.cpu.data         4992                       # number of overall misses
system.l2cache.overall_misses::total             6490                       # number of overall misses
system.l2cache.demand_accesses::.cpu.inst         5230                       # number of demand (read+write) accesses
system.l2cache.demand_accesses::.cpu.data        85692                       # number of demand (read+write) accesses
system.l2cache.demand_accesses::total           90922                       # number of demand (read+write) accesses
system.l2cache.overall_accesses::.cpu.inst         5230                       # number of overall (read+write) accesses
system.l2cache.overall_accesses::.cpu.data        85692                       # number of overall (read+write) accesses
system.l2cache.overall_accesses::total          90922                       # number of overall (read+write) accesses
system.l2cache.demand_miss_rate::.cpu.inst     0.286424                       # miss rate for demand accesses
system.l2cache.demand_miss_rate::.cpu.data     0.058255                       # miss rate for demand accesses
system.l2cache.demand_miss_rate::total       0.071380                       # miss rate for demand accesses
system.l2cache.overall_miss_rate::.cpu.inst     0.286424                       # miss rate for overall accesses
system.l2cache.overall_miss_rate::.cpu.data     0.058255                       # miss rate for overall accesses
system.l2cache.overall_miss_rate::total      0.071380                       # miss rate for overall accesses
system.l2cache.blocked_cycles::no_mshrs             0                       # number of cycles access was blocked
system.l2cache.blocked_cycles::no_targets            0                       # number of cycles access was blocked
system.l2cache.blocked::no_mshrs                    0                       # number of cycles access was blocked
system.l2cache.blocked::no_targets                  0                       # number of cycles access was blocked
system.l2cache.avg_blocked_cycles::no_mshrs          nan                       # average number of cycles each access was blocked
system.l2cache.avg_blocked_cycles::no_targets          nan                       # average number of cycles each access was blocked
system.l2cache.writebacks::.writebacks            534                       # number of writebacks
system.l2cache.writebacks::total                  534                       # number of writebacks
system.l2cache.replacements                      2513                       # number of replacements
system.l2cache.WritebackDirty_hits::.writebacks        80581                       # number of WritebackDirty hits
system.l2cache.WritebackDirty_hits::total        80581                       # number of WritebackDirty hits
system.l2cache.WritebackDirty_accesses::.writebacks        80581                       # number of WritebackDirty accesses(hits+misses)
system.l2cache.WritebackDirty_accesses::total        80581                       # number of WritebackDirty accesses(hits+misses)
system.l2cache.ReadExReq_hits::.cpu.data        58203                       # number of ReadExReq hits
system.l2cache.ReadExReq_hits::total            58203                       # number of ReadExReq hits
system.l2cache.ReadExReq_misses::.cpu.data         3750                       # number of ReadExReq misses
system.l2cache.ReadExReq_misses::total           3750                       # number of ReadExReq misses
system.l2cache.ReadExReq_accesses::.cpu.data        61953                       # number of ReadExReq accesses(hits+misses)
system.l2cache.ReadExReq_accesses::total        61953                       # number of ReadExReq accesses(hits+misses)
system.l2cache.ReadExReq_miss_rate::.cpu.data     0.060530                       # miss rate for ReadExReq accesses
system.l2cache.ReadExReq_miss_rate::total     0.060530                       # miss rate for ReadExReq accesses
system.l2cache.ReadSharedReq_hits::.cpu.inst         3732                       # number of ReadSharedReq hits
system.l2cache.ReadSharedReq_hits::.cpu.data        22497                       # number of ReadSharedReq hits
system.l2cache.ReadSharedReq_hits::total        26229                       # number of ReadSharedReq hits
system.l2cache.ReadSharedReq_misses::.cpu.inst         1498                       # number of ReadSharedReq misses
system.l2cache.ReadSharedReq_misses::.cpu.data         1242                       # number of ReadSharedReq misses
system.l2cache.ReadSharedReq_misses::total         2740                       # number of ReadSharedReq misses
system.l2cache.ReadSharedReq_accesses::.cpu.inst         5230                       # number of ReadSharedReq accesses(hits+misses)
system.l2cache.ReadSharedReq_accesses::.cpu.data        23739                       # number of ReadSharedReq accesses(hits+misses)
system.l2cache.ReadSharedReq_accesses::total        28969                       # number of ReadSharedReq accesses(hits+misses)
system.l2cache.ReadSharedReq_miss_rate::.cpu.inst     0.286424                       # miss rate for ReadSharedReq accesses
system.l2cache.ReadSharedReq_miss_rate::.cpu.data     0.052319                       # miss rate for ReadSharedReq accesses
system.l2cache.ReadSharedReq_miss_rate::total     0.094584                       # miss rate for ReadSharedReq accesses
system.l2cache.power_state.pwrStateResidencyTicks::UNDEFINED 168671539000                       # Cumulative time (in ticks) in various power states
system.l2cache.tags.tagsinuse             4053.058163                       # Cycle average of tags in use
system.l2cache.tags.total_refs                 180474                       # Total number of references to valid blocks.
system.l2cache.tags.sampled_refs                 6608                       # Sample count of references to valid blocks.
system.l2cache.tags.avg_refs                27.311441                       # Average number of references to valid blocks.
system.l2cache.tags.warmup_cycle                    0                       # Cycle when the warmup percentage was hit.
system.l2cache.tags.occ_blocks::.writebacks    75.894816                       # Average occupied blocks per requestor
system.l2cache.tags.occ_blocks::.cpu.inst   268.798730                       # Average occupied blocks per requestor
system.l2cache.tags.occ_blocks::.cpu.data  3708.364617                       # Average occupied blocks per requestor
system.l2cache.tags.occ_percent::.writebacks     0.018529                       # Average percentage of cache occupancy
system.l2cache.tags.occ_percent::.cpu.inst     0.065625                       # Average percentage of cache occupancy
system.l2cache.tags.occ_percent::.cpu.data     0.905362                       # Average percentage of cache occupancy
system.l2cache.tags.occ_percent::total       0.989516                       # Average percentage of cache occupancy
system.l2cache.tags.occ_task_id_blocks::1024         4095                       # Occupied blocks per task id
system.l2cache.tags.age_task_id_blocks_1024::2            1                       # Occupied blocks per task id
system.l2cache.tags.age_task_id_blocks_1024::3            5                       # Occupied blocks per task id
system.l2cache.tags.age_task_id_blocks_1024::4         4089                       # Occupied blocks per task id
system.l2cache.tags.occ_task_id_percent::1024     0.999756                       # Percentage of cache occupancy per task id
system.l2cache.tags.tag_accesses              1451112                       # Number of tag accesses
system.l2cache.tags.data_accesses             1451112                       # Number of data accesses
system.l2cache.tags.power_state.pwrStateResidencyTicks::UNDEFINED 168671539000                       # Cumulative time (in ticks) in various power states
system.mem_ctrl.bytes_read::.cpu.inst           95872                       # Number of bytes read from this memory
system.mem_ctrl.bytes_read::.cpu.data          319488                       # Number of bytes read from this memory
system.mem_ctrl.bytes_read::total              415360                       # Number of bytes read from this memory
system.mem_ctrl.bytes_inst_read::.cpu.inst        95872                       # Number of instructions bytes read from this memory
system.mem_ctrl.bytes_inst_read::total          95872                       # Number of instructions bytes read from this memory
system.mem_ctrl.bytes_written::.writebacks        34176                       # Number of bytes written to this memory
system.mem_ctrl.bytes_written::total            34176                       # Number of bytes written to this memory
system.mem_ctrl.num_reads::.cpu.inst             1498                       # Number of read requests responded to by this memory
system.mem_ctrl.num_reads::.cpu.data             4992                       # Number of read requests responded to by this memory
system.mem_ctrl.num_reads::total                 6490                       # Number of read requests responded to by this memory
system.mem_ctrl.num_writes::.writebacks           534                       # Number of write requests responded to by this memory
system.mem_ctrl.num_writes::total                 534                       # Number of write requests responded to by this memory
system.mem_ctrl.bw_read::.cpu.inst             568395                       # Total read bandwidth from this memory (bytes/s)
system.mem_ctrl.bw_read::.cpu.data            1894143                       # Total read bandwidth from this memory (bytes/s)
system.mem_ctrl.bw_read::total                2462538                       # Total read bandwidth from this memory (bytes/s)
system.mem_ctrl.bw_inst_read::.cpu.inst        568395                       # Instruction read bandwidth from this memory (bytes/s)
system.mem_ctrl.bw_inst_read::total            568395                       # Instruction read bandwidth from this memory (bytes/s)
system.mem_ctrl.bw_write::.writebacks          202619                       # Write bandwidth from this memory (bytes/s)
system.mem_ctrl.bw_write::total                202619                       # Write bandwidth from this memory (bytes/s)
system.mem_ctrl.bw_total::.writebacks          202619                       # Total bandwidth to/from this memory (bytes/s)
system.mem_ctrl.bw_total::.cpu.inst            568395                       # Total bandwidth to/from this memory (bytes/s)
system.mem_ctrl.bw_total::.cpu.data           1894143                       # Total bandwidth to/from this memory (bytes/s)
system.mem_ctrl.bw_total::total               2665156                       # Total bandwidth to/from this memory (bytes/s)
system.mem_ctrl.priorityMinLatency       0.000000000000                       # per QoS priority minimum request to response latency (s)
system.mem_ctrl.priorityMaxLatency       0.000000000000                       # per QoS priority maximum request to response latency (s)
system.mem_ctrl.numReadWriteTurnArounds             0                       # Number of turnarounds from READ to WRITE
system.mem_ctrl.numWriteReadTurnArounds             0                       # Number of turnarounds from WRITE to READ
system.mem_ctrl.numStayReadState                    0                       # Number of times bus staying in READ state
system.mem_ctrl.numStayWriteState                   0                       # Number of times bus staying in WRITE state
system.mem_ctrl.readReqs                            0                       # Number of read requests accepted
system.mem_ctrl.writeReqs                           0                       # Number of write requests accepted
system.mem_ctrl.readBursts                          0                       # Number of DRAM read bursts, including those serviced by the write queue
system.mem_ctrl.writeBursts                         0                       # Number of DRAM write bursts, including those merged in the write queue
system.mem_ctrl.servicedByWrQ                       0                       # Number of DRAM read bursts serviced by the write queue
system.mem_ctrl.mergedWrBursts                      0                       # Number of DRAM write bursts merged with an existing one
system.mem_ctrl.neitherReadNorWriteReqs             0                       # Number of requests that are neither read nor write
system.mem_ctrl.perBankRdBursts::0                  0                       # Per bank write bursts
system.mem_ctrl.perBankRdBursts::1                  0                       # Per bank write bursts
system.mem_ctrl.perBankRdBursts::2                  0                       # Per bank write bursts
system.mem_ctrl.perBankRdBursts::3                  0                       # Per bank write bursts
system.mem_ctrl.perBankRdBursts::4                  0                       # Per bank write bursts
system.mem_ctrl.perBankRdBursts::5                  0                       # Per bank write bursts
system.mem_ctrl.perBankRdBursts::6                  0                       # Per bank write bursts
system.mem_ctrl.perBankRdBursts::7                  0                       # Per bank write bursts
system.mem_ctrl.perBankRdBursts::8                  0                       # Per bank write bursts
system.mem_ctrl.perBankRdBursts::9                  0                       # Per bank write bursts
system.mem_ctrl.perBankRdBursts::10                 0                       # Per bank write bursts
system.mem_ctrl.perBankRdBursts::11                 0                       # Per bank write bursts
system.mem_ctrl.perBankRdBursts::12                 0                       # Per bank write bursts
system.mem_ctrl.perBankRdBursts::13                 0                       # Per bank write bursts
system.mem_ctrl.perBankRdBursts::14                 0                       # Per bank write bursts
system.mem_ctrl.perBankRdBursts::15                 0                       # Per bank write bursts
system.mem_ctrl.perBankWrBursts::0                  0                       # Per bank write bursts
system.mem_ctrl.perBankWrBursts::1                  0                       # Per bank write bursts
system.mem_ctrl.perBankWrBursts::2                  0                       # Per bank write bursts
system.mem_ctrl.perBankWrBursts::3                  0                       # Per bank write bursts
system.mem_ctrl.perBankWrBursts::4                  0                       # Per bank write bursts
system.mem_ctrl.perBankWrBursts::5                  0                       # Per bank write bursts
system.mem_ctrl.perBankWrBursts::6                  0                       # Per bank write bursts
system.mem_ctrl.perBankWrBursts::7                  0                       # Per bank write bursts
system.mem_ctrl.perBankWrBursts::8                  0                       # Per bank write bursts
system.mem_ctrl.perBankWrBursts::9                  0                       # Per bank write bursts
system.mem_ctrl.perBankWrBursts::10                 0                       # Per bank write bursts
system.mem_ctrl.perBankWrBursts::11                 0                       # Per bank write bursts
system.mem_ctrl.perBankWrBursts::12                 0                       # Per bank write bursts
system.mem_ctrl.perBankWrBursts::13                 0                       # Per bank write bursts
system.mem_ctrl.perBankWrBursts::14                 0                       # Per bank write bursts
system.mem_ctrl.perBankWrBursts::15                 0                       # Per bank write bursts
system.mem_ctrl.avgRdQLen                        0.00                       # Average read queue length when enqueuing
system.mem_ctrl.avgWrQLen                        0.00                       # Average write queue length when enqueuing
system.mem_ctrl.totQLat                             0                       # Total ticks spent queuing
system.mem_ctrl.totBusLat                           0                       # Total ticks spent in databus transfers
system.mem_ctrl.totMemAccLat                        0                       # Total ticks spent from burst creation until serviced by the DRAM
system.mem_ctrl.avgQLat                           nan                       # Average queueing delay per DRAM burst
system.mem_ctrl.avgBusLat                         nan                       # Average bus latency per DRAM burst
system.mem_ctrl.avgMemAccLat                      nan                       # Average memory access latency per DRAM burst
system.mem_ctrl.numRdRetry                          0                       # Number of times read queue was full causing retry
system.mem_ctrl.numWrRetry                          0                       # Number of times write queue was full causing retry
system.mem_ctrl.readRowHits                         0                       # Number of row buffer hits during reads
system.mem_ctrl.writeRowHits                        0                       # Number of row buffer hits during writes
system.mem_ctrl.readRowHitRate                    nan                       # Row buffer hit rate for reads
system.mem_ctrl.writeRowHitRate                   nan                       # Row buffer hit rate for writes
system.mem_ctrl.readPktSize::0                      0                       # Read request sizes (log2)
system.mem_ctrl.readPktSize::1                      0                       # Read request sizes (log2)
system.mem_ctrl.readPktSize::2                      0                       # Read request sizes (log2)
system.mem_ctrl.readPktSize::3                      0                       # Read request sizes (log2)
system.mem_ctrl.readPktSize::4                      0                       # Read request sizes (log2)
system.mem_ctrl.readPktSize::5                      0                       # Read request sizes (log2)
system.mem_ctrl.readPktSize::6                      0                       # Read request sizes (log2)
system.mem_ctrl.writePktSize::0                     0                       # Write request sizes (log2)
system.mem_ctrl.writePktSize::1                     0                       # Write request sizes (log2)
system.mem_ctrl.writePktSize::2                     0                       # Write request sizes (log2)
system.mem_ctrl.writePktSize::3                     0                       # Write request sizes (log2)
system.mem_ctrl.writePktSize::4                     0                       # Write request sizes (log2)
system.mem_ctrl.writePktSize::5                     0                       # Write request sizes (log2)
system.mem_ctrl.writePktSize::6                     0                       # Write request sizes (log2)
system.mem_ctrl.rdQLenPdf::0                        0                       # What read queue length does an incoming req see
system.mem_ctrl.rdQLenPdf::1                        0                       # What read queue length does an incoming req see
system.mem_ctrl.rdQLenPdf::2                        0                       # What read queue length does an incoming req see
system.mem_ctrl.rdQLenPdf::3                        0                       # What read queue length does an incoming req see
system.mem_ctrl.rdQLenPdf::4                        0                       # What read queue length does an incoming req see
system.mem_ctrl.rdQLenPdf::5                        0                       # What read queue length does an incoming req see
system.mem_ctrl.rdQLenPdf::6                        0                       # What read queue length does an incoming req see
system.mem_ctrl.rdQLenPdf::7                        0                       # What read queue length does an incoming req see
system.mem_ctrl.rdQLenPdf::8                        0                       # What read queue length does an incoming req see
system.mem_ctrl.rdQLenPdf::9                        0                       # What read queue length does an incoming req see
system.mem_ctrl.rdQLenPdf::10                       0                       # What read queue length does an incoming req see
system.mem_ctrl.rdQLenPdf::11                       0                       # What read queue length does an incoming req see
system.mem_ctrl.rdQLenPdf::12                       0                       # What read queue length does an incoming req see
system.mem_ctrl.rdQLenPdf::13                       0                       # What read queue length does an incoming req see
system.mem_ctrl.rdQLenPdf::14                       0                       # What read queue length does an incoming req see
system.mem_ctrl.rdQLenPdf::15                       0                       # What read queue length does an incoming req see
system.mem_ctrl.rdQLenPdf::16                       0                       # What read queue length does an incoming req see
system.mem_ctrl.rdQLenPdf::17                       0                       # What read queue length does an incoming req see
system.mem_ctrl.rdQLenPdf::18                       0                       # What read queue length does an incoming req see
system.mem_ctrl.rdQLenPdf::19                       0                       # What read queue length does an incoming req see
system.mem_ctrl.rdQLenPdf::20                       0                       # What read queue length does an incoming req see
system.mem_ctrl.rdQLenPdf::21                       0                       # What read queue length does an incoming req see
system.mem_ctrl.rdQLenPdf::22                       0                       # What read queue length does an incoming req see
system.mem_ctrl.rdQLenPdf::23                       0                       # What read queue length does an incoming req see
system.mem_ctrl.rdQLenPdf::24                       0                       # What read queue length does an incoming req see
system.mem_ctrl.rdQLenPdf::25                       0                       # What read queue length does an incoming req see
system.mem_ctrl.rdQLenPdf::26                       0                       # What read queue length does an incoming req see
system.mem_ctrl.rdQLenPdf::27                       0                       # What read queue length does an incoming req see
system.mem_ctrl.rdQLenPdf::28                       0                       # What read queue length does an incoming req see
system.mem_ctrl.rdQLenPdf::29                       0                       # What read queue length does an incoming req see
system.mem_ctrl.rdQLenPdf::30                       0                       # What read queue length does an incoming req see
system.mem_ctrl.rdQLenPdf::31                       0                       # What read queue length does an incoming req see
system.mem_ctrl.wrQLenPdf::0                        0                       # What write queue length does an incoming req see
system.mem_ctrl.wrQLenPdf::1                        0                       # What write queue length does an incoming req see
system.mem_ctrl.wrQLenPdf::2                        0                       # What write queue length does an incoming req see
system.mem_ctrl.wrQLenPdf::3                        0                       # What write queue length does an incoming req see
system.mem_ctrl.wrQLenPdf::4                        0                       # What write queue length does an incoming req see
system.mem_ctrl.wrQLenPdf::5                        0                       # What write queue length does an incoming req see
system.mem_ctrl.wrQLenPdf::6                        0                       # What write queue length does an incoming req see
system.mem_ctrl.wrQLenPdf::7                        0                       # What write queue length does an incoming req see
system.mem_ctrl.wrQLenPdf::8                        0                       # What write queue length does an incoming req see
system.mem_ctrl.wrQLenPdf::9                        0                       # What write queue length does an incoming req see
system.mem_ctrl.wrQLenPdf::10                       0                       # What write queue length does an incoming req see
system.mem_ctrl.wrQLenPdf::11                       0                       # What write queue length does an incoming req see
system.mem_ctrl.wrQLenPdf::12                       0                       # What write queue length does an incoming req see
system.mem_ctrl.wrQLenPdf::13                       0                       # What write queue length does an incoming req see
system.mem_ctrl.wrQLenPdf::14                       0                       # What write queue length does an incoming req see
system.mem_ctrl.wrQLenPdf::15                       0                       # What write queue length does an incoming req see
system.mem_ctrl.wrQLenPdf::16                       0                       # What write queue length does an incoming req see
system.mem_ctrl.wrQLenPdf::17                       0                       # What write queue length does an incoming req see
system.mem_ctrl.wrQLenPdf::18                       0                       # What write queue length does an incoming req see
system.mem_ctrl.wrQLenPdf::19                       0                       # What write queue length does an incoming req see
system.mem_ctrl.wrQLenPdf::20                       0                       # What write queue length does an incoming req see
system.mem_ctrl.wrQLenPdf::21                       0                       # What write queue length does an incoming req see
system.mem_ctrl.wrQLenPdf::22                       0                       # What write queue length does an incoming req see
system.mem_ctrl.wrQLenPdf::23                       0                       # What write queue length does an incoming req see
system.mem_ctrl.wrQLenPdf::24                       0                       # What write queue length does an incoming req see
system.mem_ctrl.wrQLenPdf::25                       0                       # What write queue length does an incoming req see
system.mem_ctrl.wrQLenPdf::26                       0                       # What write queue length does an incoming req see
system.mem_ctrl.wrQLenPdf::27                       0                       # What write queue length does an incoming req see
system.mem_ctrl.wrQLenPdf::28                       0                       # What write queue length does an incoming req see
system.mem_ctrl.wrQLenPdf::29                       0                       # What write queue length does an incoming req see
system.mem_ctrl.wrQLenPdf::30                       0                       # What write queue length does an incoming req see
system.mem_ctrl.wrQLenPdf::31                       0                       # What write queue length does an incoming req see
system.mem_ctrl.wrQLenPdf::32                       0                       # What write queue length does an incoming req see
system.mem_ctrl.wrQLenPdf::33                       0                       # What write queue length does an incoming req see
system.mem_ctrl.wrQLenPdf::34                       0                       # What write queue length does an incoming req see
system.mem_ctrl.wrQLenPdf::35                       0                       # What write queue length does an incoming req see
system.mem_ctrl.wrQLenPdf::36                       0                       # What write queue length does an incoming req see
system.mem_ctrl.wrQLenPdf::37                       0                       # What write queue length does an incoming req see
system.mem_ctrl.wrQLenPdf::38                       0                       # What write queue length does an incoming req see
system.mem_ctrl.wrQLenPdf::39                       0                       # What write queue length does an incoming req see
system.mem_ctrl.wrQLenPdf::40                       0                       # What write queue length does an incoming req see
system.mem_ctrl.wrQLenPdf::41                       0                       # What write queue length does an incoming req see
system.mem_ctrl.wrQLenPdf::42                       0                       # What write queue length does an incoming req see
system.mem_ctrl.wrQLenPdf::43                       0                       # What write queue length does an incoming req see
system.mem_ctrl.wrQLenPdf::44                       0                       # What write queue length does an incoming req see
system.mem_ctrl.wrQLenPdf::45                       0                       # What write queue length does an incoming req see
system.mem_ctrl.wrQLenPdf::46                       0                       # What write queue length does an incoming req see
system.mem_ctrl.wrQLenPdf::47                       0                       # What write queue length does an incoming req see
system.mem_ctrl.wrQLenPdf::48                       0                       # What write queue length does an incoming req see
system.mem_ctrl.wrQLenPdf::49                       0                       # What write queue length does an incoming req see
system.mem_ctrl.wrQLenPdf::50                       0                       # What write queue length does an incoming req see
system.mem_ctrl.wrQLenPdf::51                       0                       # What write queue length does an incoming req see
system.mem_ctrl.wrQLenPdf::52                       0                       # What write queue length does an incoming req see
system.mem_ctrl.wrQLenPdf::53                       0                       # What write queue length does an incoming req see
system.mem_ctrl.wrQLenPdf::54                       0                       # What write queue length does an incoming req see
system.mem_ctrl.wrQLenPdf::55                       0                       # What write queue length does an incoming req see
system.mem_ctrl.wrQLenPdf::56                       0                       # What write queue length does an incoming req see
system.mem_ctrl.wrQLenPdf::57                       0                       # What write queue length does an incoming req see
system.mem_ctrl.wrQLenPdf::58                       0                       # What write queue length does an incoming req see
system.mem_ctrl.wrQLenPdf::59                       0                       # What write queue length does an incoming req see
system.mem_ctrl.wrQLenPdf::60                       0                       # What write queue length does an incoming req see
system.mem_ctrl.wrQLenPdf::61                       0                       # What write queue length does an incoming req see
system.mem_ctrl.wrQLenPdf::62                       0                       # What write queue length does an incoming req see
system.mem_ctrl.wrQLenPdf::63                       0                       # What write queue length does an incoming req see
system.mem_ctrl.bytesReadDRAM                       0                       # Total number of bytes read from DRAM
system.mem_ctrl.bytesReadWrQ                        0                       # Total number of bytes read from write queue
system.mem_ctrl.bytesWritten                        0                       # Total number of bytes written to DRAM
system.mem_ctrl.bytesReadSys                        0                       # Total read bytes from the system interface side
system.mem_ctrl.bytesWrittenSys                     0                       # Total written bytes from the system interface side
system.mem_ctrl.avgRdBW                          0.00                       # Average DRAM read bandwidth in MiByte/s
system.mem_ctrl.avgWrBW                          0.00                       # Average achieved write bandwidth in MiByte/s
system.mem_ctrl.avgRdBWSys                       0.00                       # Average system read bandwidth in MiByte/s
system.mem_ctrl.avgWrBWSys                       0.00                       # Average system write bandwidth in MiByte/s
system.mem_ctrl.peakBW                       12800.00                       # Theoretical peak bandwidth in MiByte/s
system.mem_ctrl.busUtil                          0.00                       # Data bus utilization in percentage
system.mem_ctrl.busUtilRead                      0.00                       # Data bus utilization in percentage for reads
system.mem_ctrl.busUtilWrite                     0.00                       # Data bus utilization in percentage for writes
system.mem_ctrl.totGap                              0                       # Total gap between requests
system.mem_ctrl.avgGap                            nan                       # Average gap between requests
system.mem_ctrl.pageHitRate                       nan                       # Row buffer hit rate, read and write combined
system.mem_ctrl.power_state.pwrStateResidencyTicks::UNDEFINED 168671539000                       # Cumulative time (in ticks) in various power states
system.mem_ctrl.rank0.actEnergy                     0                       # Energy for activate commands per rank (pJ)
system.mem_ctrl.rank0.preEnergy                     0                       # Energy for precharge commands per rank (pJ)
system.mem_ctrl.rank0.readEnergy                    0                       # Energy for read commands per rank (pJ)
system.mem_ctrl.rank0.writeEnergy                   0                       # Energy for write commands per rank (pJ)
system.mem_ctrl.rank0.refreshEnergy                 0                       # Energy for refresh commands per rank (pJ)
system.mem_ctrl.rank0.actBackEnergy                 0                       # Energy for active background per rank (pJ)
system.mem_ctrl.rank0.preBackEnergy       64769871360                       # Energy for precharge background per rank (pJ)
system.mem_ctrl.rank0.actPowerDownEnergy            0                       # Energy for active power-down per rank (pJ)
system.mem_ctrl.rank0.prePowerDownEnergy            0                       # Energy for precharge power-down per rank (pJ)
system.mem_ctrl.rank0.selfRefreshEnergy             0                       # Energy for self refresh per rank (pJ)
system.mem_ctrl.rank0.totalEnergy         64769871360                       # Total energy per rank (pJ)
system.mem_ctrl.rank0.averagePower         384.000002                       # Core power per rank (mW)
system.mem_ctrl.rank0.totalIdleTime                 0                       # Total Idle time Per DRAM Rank
system.mem_ctrl.rank0.memoryStateTime::IDLE 168671539000                       # Time in different power states
system.mem_ctrl.rank0.memoryStateTime::REF            0                       # Time in different power states
system.mem_ctrl.rank0.memoryStateTime::SREF            0                       # Time in different power states
system.mem_ctrl.rank0.memoryStateTime::PRE_PDN            0                       # Time in different power states
system.mem_ctrl.rank0.memoryStateTime::ACT            0                       # Time in different power states
system.mem_ctrl.rank0.memoryStateTime::ACT_PDN            0                       # Time in different power states
system.mem_ctrl.rank1.actEnergy                     0                       # Energy for activate commands per rank (pJ)
system.mem_ctrl.rank1.preEnergy                     0                       # Energy for precharge commands per rank (pJ)
system.mem_ctrl.rank1.readEnergy                    0                       # Energy for read commands per rank (pJ)
system.mem_ctrl.rank1.writeEnergy                   0                       # Energy for write commands per rank (pJ)
system.mem_ctrl.rank1.refreshEnergy                 0                       # Energy for refresh commands per rank (pJ)
system.mem_ctrl.rank1.actBackEnergy                 0                       # Energy for active background per rank (pJ)
system.mem_ctrl.rank1.preBackEnergy       64769871360                       # Energy for precharge background per rank (pJ)
system.mem_ctrl.rank1.actPowerDownEnergy            0                       # Energy for active power-down per rank (pJ)
system.mem_ctrl.rank1.prePowerDownEnergy            0                       # Energy for precharge power-down per rank (pJ)
system.mem_ctrl.rank1.selfRefreshEnergy             0                       # Energy for self refresh per rank (pJ)
system.mem_ctrl.rank1.totalEnergy         64769871360                       # Total energy per rank (pJ)
system.mem_ctrl.rank1.averagePower         384.000002                       # Core power per rank (mW)
system.mem_ctrl.rank1.totalIdleTime                 0                       # Total Idle time Per DRAM Rank
system.mem_ctrl.rank1.memoryStateTime::IDLE 168671539000                       # Time in different power states
system.mem_ctrl.rank1.memoryStateTime::REF            0                       # Time in different power states
system.mem_ctrl.rank1.memoryStateTime::SREF            0                       # Time in different power states
system.mem_ctrl.rank1.memoryStateTime::PRE_PDN            0                       # Time in different power states
system.mem_ctrl.rank1.memoryStateTime::ACT            0                       # Time in different power states
system.mem_ctrl.rank1.memoryStateTime::ACT_PDN            0                       # Time in different power states
system.membus.trans_dist::ReadResp               2740                       # Transaction distribution
system.membus.trans_dist::WritebackDirty          534                       # Transaction distribution
system.membus.trans_dist::CleanEvict             1757                       # Transaction distribution
system.membus.trans_dist::ReadExReq              3750                       # Transaction distribution
system.membus.trans_dist::ReadExResp             3750                       # Transaction distribution
system.membus.trans_dist::ReadSharedReq          2740                       # Transaction distribution
system.membus.pkt_count_system.l2cache.mem_side::system.mem_ctrl.port        15271                       # Packet count per connected master and slave (bytes)
system.membus.pkt_count_system.l2cache.mem_side::total        15271                       # Packet count per connected master and slave (bytes)
system.membus.pkt_count::total                  15271                       # Packet count per connected master and slave (bytes)
system.membus.pkt_size_system.l2cache.mem_side::system.mem_ctrl.port       449536                       # Cumulative packet size per connected master and slave (bytes)
system.membus.pkt_size_system.l2cache.mem_side::total       449536                       # Cumulative packet size per connected master and slave (bytes)
system.membus.pkt_size::total                  449536                       # Cumulative packet size per connected master and slave (bytes)
system.membus.snoops                                0                       # Total snoops (count)
system.membus.snoopTraffic                          0                       # Total snoop traffic (bytes)
system.membus.snoop_fanout::samples              6490                       # Request fanout histogram
system.membus.snoop_fanout::mean                    0                       # Request fanout histogram
system.membus.snoop_fanout::stdev                   0                       # Request fanout histogram
system.membus.snoop_fanout::underflows              0      0.00%      0.00% # Request fanout histogram
system.membus.snoop_fanout::0                    6490    100.00%    100.00% # Request fanout histogram
system.membus.snoop_fanout::1                       0      0.00%    100.00% # Request fanout histogram
system.membus.snoop_fanout::overflows               0      0.00%    100.00% # Request fanout histogram
system.membus.snoop_fanout::min_value               0                       # Request fanout histogram
system.membus.snoop_fanout::max_value               0                       # Request fanout histogram
system.membus.snoop_fanout::total                6490                       # Request fanout histogram
system.membus.power_state.pwrStateResidencyTicks::UNDEFINED 168671539000                       # Cumulative time (in ticks) in various power states

---------- End Simulation Statistics   ----------
