
---------- Begin Simulation Statistics ----------
final_tick                                24211208000                       # Number of ticks from beginning of simulation (restored from checkpoints and never reset)
host_inst_rate                                 329554                       # Simulator instruction rate (inst/s)
host_mem_usage                                 687132                       # Number of bytes of host memory used
host_op_rate                                   611917                       # Simulator op (including micro ops) rate (op/s)
host_seconds                                     0.88                       # Real time elapsed on the host
host_tick_rate                            27601899910                       # Simulator tick rate (ticks/s)
sim_freq                                 1000000000000                       # Frequency of simulated ticks
sim_insts                                      289024                       # Number of instructions simulated
sim_ops                                        536735                       # Number of ops (including micro ops) simulated
sim_seconds                                  0.024211                       # Number of seconds simulated
sim_ticks                                 24211208000                       # Number of ticks simulated
system.cpu.Branches                             62531                       # Number of branches fetched
system.cpu.committedInsts                      289024                       # Number of instructions committed
system.cpu.committedOps                        536735                       # Number of ops (including micro ops) committed
system.cpu.dtb.rdAccesses                       69965                       # TLB accesses on read requests
system.cpu.dtb.rdMisses                           290                       # TLB misses on read requests
system.cpu.dtb.wrAccesses                       27538                       # TLB accesses on write requests
system.cpu.dtb.wrMisses                            51                       # TLB misses on write requests
system.cpu.idle_fraction                     0.000000                       # Percentage of idle cycles
system.cpu.itb.rdAccesses                           0                       # TLB accesses on read requests
system.cpu.itb.rdMisses                             0                       # TLB misses on read requests
system.cpu.itb.wrAccesses                      383894                       # TLB accesses on write requests
system.cpu.itb.wrMisses                           320                       # TLB misses on write requests
system.cpu.not_idle_fraction                 1.000000                       # Percentage of non-idle cycles
system.cpu.numCycles                         24211208                       # number of cpu cycles simulated
system.cpu.numWorkItemsCompleted                    0                       # number of work items this cpu completed
system.cpu.numWorkItemsStarted                      0                       # number of work items this cpu started
system.cpu.num_busy_cycles               24211207.999000                       # Number of busy cycles
system.cpu.num_cc_register_reads               345718                       # number of times the CC registers were read
system.cpu.num_cc_register_writes              204697                       # number of times the CC registers were written
system.cpu.num_conditional_control_insts        52187                       # number of instructions that are conditional controls
system.cpu.num_fp_alu_accesses                  14911                       # Number of float alu accesses
system.cpu.num_fp_insts                         14911                       # number of float instructions
system.cpu.num_fp_register_reads                20753                       # number of times the floating registers were read
system.cpu.num_fp_register_writes               10832                       # number of times the floating registers were written
system.cpu.num_func_calls                        4150                       # number of times a function call or return occured
system.cpu.num_idle_cycles                   0.001000                       # Number of idle cycles
system.cpu.num_int_alu_accesses                524070                       # Number of integer alu accesses
system.cpu.num_int_insts                       524070                       # number of integer instructions
system.cpu.num_int_register_reads             1027012                       # number of times the integer registers were read
system.cpu.num_int_register_writes             437572                       # number of times the integer registers were written
system.cpu.num_load_insts                       69932                       # Number of load instructions
system.cpu.num_mem_refs                         97468                       # number of memory refs
system.cpu.num_store_insts                      27536                       # Number of store instructions
system.cpu.num_vec_alu_accesses                     0                       # Number of vector alu accesses
system.cpu.num_vec_insts                            0                       # number of vector instructions
system.cpu.num_vec_register_reads                   0                       # number of times the vector registers were read
system.cpu.num_vec_register_writes                  0                       # number of times the vector registers were written
system.cpu.op_class::No_OpClass                  5157      0.96%      0.96% # Class of executed instruction
system.cpu.op_class::IntAlu                    422752     78.75%     79.71% # Class of executed instruction
system.cpu.op_class::IntMult                      127      0.02%     79.73% # Class of executed instruction
system.cpu.op_class::IntDiv                      2578      0.48%     80.21% # Class of executed instruction
system.cpu.op_class::FloatAdd                     872      0.16%     80.38% # Class of executed instruction
system.cpu.op_class::FloatCmp                       0      0.00%     80.38% # Class of executed instruction
system.cpu.op_class::FloatCvt                     192      0.04%     80.41% # Class of executed instruction
system.cpu.op_class::FloatMult                      0      0.00%     80.41% # Class of executed instruction
system.cpu.op_class::FloatMultAcc                   0      0.00%     80.41% # Class of executed instruction
system.cpu.op_class::FloatDiv                       0      0.00%     80.41% # Class of executed instruction
system.cpu.op_class::FloatMisc                      0      0.00%     80.41% # Class of executed instruction
system.cpu.op_class::FloatSqrt                      0      0.00%     80.41% # Class of executed instruction
system.cpu.op_class::SimdAdd                      908      0.17%     80.58% # Class of executed instruction
system.cpu.op_class::SimdAddAcc                     0      0.00%     80.58% # Class of executed instruction
system.cpu.op_class::SimdAlu                     2074      0.39%     80.97% # Class of executed instruction
system.cpu.op_class::SimdCmp                        6      0.00%     80.97% # Class of executed instruction
system.cpu.op_class::SimdCvt                     2124      0.40%     81.36% # Class of executed instruction
system.cpu.op_class::SimdMisc                    2039      0.38%     81.74% # Class of executed instruction
system.cpu.op_class::SimdMult                       0      0.00%     81.74% # Class of executed instruction
system.cpu.op_class::SimdMultAcc                    0      0.00%     81.74% # Class of executed instruction
system.cpu.op_class::SimdShift                    509      0.09%     81.84% # Class of executed instruction
system.cpu.op_class::SimdShiftAcc                   0      0.00%     81.84% # Class of executed instruction
system.cpu.op_class::SimdDiv                        0      0.00%     81.84% # Class of executed instruction
system.cpu.op_class::SimdSqrt                       0      0.00%     81.84% # Class of executed instruction
system.cpu.op_class::SimdFloatAdd                  12      0.00%     81.84% # Class of executed instruction
system.cpu.op_class::SimdFloatAlu                   0      0.00%     81.84% # Class of executed instruction
system.cpu.op_class::SimdFloatCmp                   0      0.00%     81.84% # Class of executed instruction
system.cpu.op_class::SimdFloatCvt                  12      0.00%     81.84% # Class of executed instruction
system.cpu.op_class::SimdFloatDiv                   0      0.00%     81.84% # Class of executed instruction
system.cpu.op_class::SimdFloatMisc                  0      0.00%     81.84% # Class of executed instruction
system.cpu.op_class::SimdFloatMult                  0      0.00%     81.84% # Class of executed instruction
system.cpu.op_class::SimdFloatMultAcc               0      0.00%     81.84% # Class of executed instruction
system.cpu.op_class::SimdFloatSqrt                  0      0.00%     81.84% # Class of executed instruction
system.cpu.op_class::SimdReduceAdd                  0      0.00%     81.84% # Class of executed instruction
system.cpu.op_class::SimdReduceAlu                  0      0.00%     81.84% # Class of executed instruction
system.cpu.op_class::SimdReduceCmp                  0      0.00%     81.84% # Class of executed instruction
system.cpu.op_class::SimdFloatReduceAdd             0      0.00%     81.84% # Class of executed instruction
system.cpu.op_class::SimdFloatReduceCmp             0      0.00%     81.84% # Class of executed instruction
system.cpu.op_class::SimdAes                        0      0.00%     81.84% # Class of executed instruction
system.cpu.op_class::SimdAesMix                     0      0.00%     81.84% # Class of executed instruction
system.cpu.op_class::SimdSha1Hash                   0      0.00%     81.84% # Class of executed instruction
system.cpu.op_class::SimdSha1Hash2                  0      0.00%     81.84% # Class of executed instruction
system.cpu.op_class::SimdSha256Hash                 0      0.00%     81.84% # Class of executed instruction
system.cpu.op_class::SimdSha256Hash2                0      0.00%     81.84% # Class of executed instruction
system.cpu.op_class::SimdShaSigma2                  0      0.00%     81.84% # Class of executed instruction
system.cpu.op_class::SimdShaSigma3                  0      0.00%     81.84% # Class of executed instruction
system.cpu.op_class::SimdPredAlu                    0      0.00%     81.84% # Class of executed instruction
system.cpu.op_class::MemRead                    67051     12.49%     94.33% # Class of executed instruction
system.cpu.op_class::MemWrite                   24850      4.63%     98.96% # Class of executed instruction
system.cpu.op_class::FloatMemRead                2881      0.54%     99.50% # Class of executed instruction
system.cpu.op_class::FloatMemWrite               2686      0.50%    100.00% # Class of executed instruction
system.cpu.op_class::IprAccess                      0      0.00%    100.00% # Class of executed instruction
system.cpu.op_class::InstPrefetch                   0      0.00%    100.00% # Class of executed instruction
system.cpu.op_class::total                     536830                       # Class of executed instruction
system.cpu.workload.numSyscalls                    78                       # Number of system calls
system.membus.snoop_filter.hit_multi_requests            0                       # Number of requests hitting in the snoop filter with multiple (>1) holders of the requested data.
system.membus.snoop_filter.hit_multi_snoops            0                       # Number of snoops hitting in the snoop filter with multiple (>1) holders of the requested data.
system.membus.snoop_filter.hit_single_requests            0                       # Number of requests hitting in the snoop filter with a single holder of the requested data.
system.membus.snoop_filter.hit_single_snoops            0                       # Number of snoops hitting in the snoop filter with a single holder of the requested data.
system.membus.snoop_filter.tot_requests             0                       # Total number of requests made to the snoop filter.
system.membus.snoop_filter.tot_snoops               0                       # Total number of snoops made to the snoop filter.
system.clk_domain.clock                          1000                       # Clock period in ticks
system.clk_domain.voltage_domain.voltage            1                       # Voltage in Volts
system.cpu.dtb.walker.power_state.pwrStateResidencyTicks::UNDEFINED  24211208000                       # Cumulative time (in ticks) in various power states
system.cpu.interrupts.clk_domain.clock          16000                       # Clock period in ticks
system.cpu.itb.walker.power_state.pwrStateResidencyTicks::UNDEFINED  24211208000                       # Cumulative time (in ticks) in various power states
system.cpu.power_state.numTransitions               1                       # Number of power state transitions
system.cpu.power_state.pwrStateResidencyTicks::ON  24211208000                       # Cumulative time (in ticks) in various power states
system.mem_ctrl.bytes_read::.cpu.inst         3070424                       # Number of bytes read from this memory
system.mem_ctrl.bytes_read::.cpu.data          403600                       # Number of bytes read from this memory
system.mem_ctrl.bytes_read::total             3474024                       # Number of bytes read from this memory
system.mem_ctrl.bytes_inst_read::.cpu.inst      3070424                       # Number of instructions bytes read from this memory
system.mem_ctrl.bytes_inst_read::total        3070424                       # Number of instructions bytes read from this memory
system.mem_ctrl.bytes_written::.cpu.data       199447                       # Number of bytes written to this memory
system.mem_ctrl.bytes_written::total           199447                       # Number of bytes written to this memory
system.mem_ctrl.num_reads::.cpu.inst           383803                       # Number of read requests responded to by this memory
system.mem_ctrl.num_reads::.cpu.data            69891                       # Number of read requests responded to by this memory
system.mem_ctrl.num_reads::total               453694                       # Number of read requests responded to by this memory
system.mem_ctrl.num_writes::.cpu.data           27517                       # Number of write requests responded to by this memory
system.mem_ctrl.num_writes::total               27517                       # Number of write requests responded to by this memory
system.mem_ctrl.bw_read::.cpu.inst          126818290                       # Total read bandwidth from this memory (bytes/s)
system.mem_ctrl.bw_read::.cpu.data           16669965                       # Total read bandwidth from this memory (bytes/s)
system.mem_ctrl.bw_read::total              143488256                       # Total read bandwidth from this memory (bytes/s)
system.mem_ctrl.bw_inst_read::.cpu.inst     126818290                       # Instruction read bandwidth from this memory (bytes/s)
system.mem_ctrl.bw_inst_read::total         126818290                       # Instruction read bandwidth from this memory (bytes/s)
system.mem_ctrl.bw_write::.cpu.data           8237796                       # Write bandwidth from this memory (bytes/s)
system.mem_ctrl.bw_write::total               8237796                       # Write bandwidth from this memory (bytes/s)
system.mem_ctrl.bw_total::.cpu.inst         126818290                       # Total bandwidth to/from this memory (bytes/s)
system.mem_ctrl.bw_total::.cpu.data          24907762                       # Total bandwidth to/from this memory (bytes/s)
system.mem_ctrl.bw_total::total             151726052                       # Total bandwidth to/from this memory (bytes/s)
system.mem_ctrl.avgPriority_.cpu.inst::samples    383803.00                       # Average QoS priority value for accepted requests
system.mem_ctrl.avgPriority_.cpu.data::samples     66427.00                       # Average QoS priority value for accepted requests
system.mem_ctrl.priorityMinLatency       0.000000018750                       # per QoS priority minimum request to response latency (s)
system.mem_ctrl.priorityMaxLatency       0.011436392500                       # per QoS priority maximum request to response latency (s)
system.mem_ctrl.numReadWriteTurnArounds           104                       # Number of turnarounds from READ to WRITE
system.mem_ctrl.numWriteReadTurnArounds           104                       # Number of turnarounds from WRITE to READ
system.mem_ctrl.numStayReadState               930667                       # Number of times bus staying in READ state
system.mem_ctrl.numStayWriteState                1571                       # Number of times bus staying in WRITE state
system.mem_ctrl.readReqs                       453694                       # Number of read requests accepted
system.mem_ctrl.writeReqs                       27517                       # Number of write requests accepted
system.mem_ctrl.readBursts                     453694                       # Number of DRAM read bursts, including those serviced by the write queue
system.mem_ctrl.writeBursts                     27517                       # Number of DRAM write bursts, including those merged in the write queue
system.mem_ctrl.servicedByWrQ                    5161                       # Number of DRAM read bursts serviced by the write queue
system.mem_ctrl.mergedWrBursts                  25820                       # Number of DRAM write bursts merged with an existing one
system.mem_ctrl.neitherReadNorWriteReqs             0                       # Number of requests that are neither read nor write
system.mem_ctrl.perBankRdBursts::0               9631                       # Per bank write bursts
system.mem_ctrl.perBankRdBursts::1               8898                       # Per bank write bursts
system.mem_ctrl.perBankRdBursts::2              20717                       # Per bank write bursts
system.mem_ctrl.perBankRdBursts::3               9418                       # Per bank write bursts
system.mem_ctrl.perBankRdBursts::4              10425                       # Per bank write bursts
system.mem_ctrl.perBankRdBursts::5              22263                       # Per bank write bursts
system.mem_ctrl.perBankRdBursts::6              14548                       # Per bank write bursts
system.mem_ctrl.perBankRdBursts::7               8079                       # Per bank write bursts
system.mem_ctrl.perBankRdBursts::8              88478                       # Per bank write bursts
system.mem_ctrl.perBankRdBursts::9             151858                       # Per bank write bursts
system.mem_ctrl.perBankRdBursts::10             54149                       # Per bank write bursts
system.mem_ctrl.perBankRdBursts::11              9364                       # Per bank write bursts
system.mem_ctrl.perBankRdBursts::12             12942                       # Per bank write bursts
system.mem_ctrl.perBankRdBursts::13              6449                       # Per bank write bursts
system.mem_ctrl.perBankRdBursts::14             12742                       # Per bank write bursts
system.mem_ctrl.perBankRdBursts::15              8572                       # Per bank write bursts
system.mem_ctrl.perBankWrBursts::0                  0                       # Per bank write bursts
system.mem_ctrl.perBankWrBursts::1                 81                       # Per bank write bursts
system.mem_ctrl.perBankWrBursts::2                 34                       # Per bank write bursts
system.mem_ctrl.perBankWrBursts::3                 23                       # Per bank write bursts
system.mem_ctrl.perBankWrBursts::4                 67                       # Per bank write bursts
system.mem_ctrl.perBankWrBursts::5                 61                       # Per bank write bursts
system.mem_ctrl.perBankWrBursts::6                  0                       # Per bank write bursts
system.mem_ctrl.perBankWrBursts::7                 39                       # Per bank write bursts
system.mem_ctrl.perBankWrBursts::8                 66                       # Per bank write bursts
system.mem_ctrl.perBankWrBursts::9                237                       # Per bank write bursts
system.mem_ctrl.perBankWrBursts::10               622                       # Per bank write bursts
system.mem_ctrl.perBankWrBursts::11               116                       # Per bank write bursts
system.mem_ctrl.perBankWrBursts::12                 9                       # Per bank write bursts
system.mem_ctrl.perBankWrBursts::13               165                       # Per bank write bursts
system.mem_ctrl.perBankWrBursts::14               132                       # Per bank write bursts
system.mem_ctrl.perBankWrBursts::15                20                       # Per bank write bursts
system.mem_ctrl.avgRdQLen                        1.00                       # Average read queue length when enqueuing
system.mem_ctrl.avgWrQLen                       27.01                       # Average write queue length when enqueuing
system.mem_ctrl.totQLat                    1540862000                       # Total ticks spent queuing
system.mem_ctrl.totBusLat                  2242665000                       # Total ticks spent in databus transfers
system.mem_ctrl.totMemAccLat               9950855750                       # Total ticks spent from burst creation until serviced by the DRAM
system.mem_ctrl.avgQLat                       3435.34                       # Average queueing delay per DRAM burst
system.mem_ctrl.avgBusLat                     5000.00                       # Average bus latency per DRAM burst
system.mem_ctrl.avgMemAccLat                 22185.34                       # Average memory access latency per DRAM burst
system.mem_ctrl.numRdRetry                          0                       # Number of times read queue was full causing retry
system.mem_ctrl.numWrRetry                          0                       # Number of times write queue was full causing retry
system.mem_ctrl.readRowHits                    402477                       # Number of row buffer hits during reads
system.mem_ctrl.writeRowHits                     1484                       # Number of row buffer hits during writes
system.mem_ctrl.readRowHitRate                  89.73                       # Row buffer hit rate for reads
system.mem_ctrl.writeRowHitRate                 87.45                       # Row buffer hit rate for writes
system.mem_ctrl.readPktSize::0                  12756                       # Read request sizes (log2)
system.mem_ctrl.readPktSize::1                   3665                       # Read request sizes (log2)
system.mem_ctrl.readPktSize::2                  11050                       # Read request sizes (log2)
system.mem_ctrl.readPktSize::3                 426223                       # Read request sizes (log2)
system.mem_ctrl.readPktSize::4                      0                       # Read request sizes (log2)
system.mem_ctrl.readPktSize::5                      0                       # Read request sizes (log2)
system.mem_ctrl.readPktSize::6                      0                       # Read request sizes (log2)
system.mem_ctrl.writePktSize::0                   931                       # Write request sizes (log2)
system.mem_ctrl.writePktSize::1                   262                       # Write request sizes (log2)
system.mem_ctrl.writePktSize::2                  3149                       # Write request sizes (log2)
system.mem_ctrl.writePktSize::3                 23175                       # Write request sizes (log2)
system.mem_ctrl.writePktSize::4                     0                       # Write request sizes (log2)
system.mem_ctrl.writePktSize::5                     0                       # Write request sizes (log2)
system.mem_ctrl.writePktSize::6                     0                       # Write request sizes (log2)
system.mem_ctrl.rdQLenPdf::0                   448500                       # What read queue length does an incoming req see
system.mem_ctrl.rdQLenPdf::1                       33                       # What read queue length does an incoming req see
system.mem_ctrl.rdQLenPdf::2                        0                       # What read queue length does an incoming req see
system.mem_ctrl.rdQLenPdf::3                        0                       # What read queue length does an incoming req see
system.mem_ctrl.rdQLenPdf::4                        0                       # What read queue length does an incoming req see
system.mem_ctrl.rdQLenPdf::5                        0                       # What read queue length does an incoming req see
system.mem_ctrl.rdQLenPdf::6                        0                       # What read queue length does an incoming req see
system.mem_ctrl.rdQLenPdf::7                        0                       # What read queue length does an incoming req see
system.mem_ctrl.rdQLenPdf::8                        0                       # What read queue length does an incoming req see
system.mem_ctrl.rdQLenPdf::9                        0                       # What read queue length does an incoming req see
system.mem_ctrl.rdQLenPdf::10                       0                       # What read queue length does an incoming req see
system.mem_ctrl.rdQLenPdf::11                       0                       # What read queue length does an incoming req see
system.mem_ctrl.rdQLenPdf::12                       0                       # What read queue length does an incoming req see
system.mem_ctrl.rdQLenPdf::13                       0                       # What read queue length does an incoming req see
system.mem_ctrl.rdQLenPdf::14                       0                       # What read queue length does an incoming req see
system.mem_ctrl.rdQLenPdf::15                       0                       # What read queue length does an incoming req see
system.mem_ctrl.rdQLenPdf::16                       0                       # What read queue length does an incoming req see
system.mem_ctrl.rdQLenPdf::17                       0                       # What read queue length does an incoming req see
system.mem_ctrl.rdQLenPdf::18                       0                       # What read queue length does an incoming req see
system.mem_ctrl.rdQLenPdf::19                       0                       # What read queue length does an incoming req see
system.mem_ctrl.rdQLenPdf::20                       0                       # What read queue length does an incoming req see
system.mem_ctrl.rdQLenPdf::21                       0                       # What read queue length does an incoming req see
system.mem_ctrl.rdQLenPdf::22                       0                       # What read queue length does an incoming req see
system.mem_ctrl.rdQLenPdf::23                       0                       # What read queue length does an incoming req see
system.mem_ctrl.rdQLenPdf::24                       0                       # What read queue length does an incoming req see
system.mem_ctrl.rdQLenPdf::25                       0                       # What read queue length does an incoming req see
system.mem_ctrl.rdQLenPdf::26                       0                       # What read queue length does an incoming req see
system.mem_ctrl.rdQLenPdf::27                       0                       # What read queue length does an incoming req see
system.mem_ctrl.rdQLenPdf::28                       0                       # What read queue length does an incoming req see
system.mem_ctrl.rdQLenPdf::29                       0                       # What read queue length does an incoming req see
system.mem_ctrl.rdQLenPdf::30                       0                       # What read queue length does an incoming req see
system.mem_ctrl.rdQLenPdf::31                       0                       # What read queue length does an incoming req see
system.mem_ctrl.wrQLenPdf::0                        1                       # What write queue length does an incoming req see
system.mem_ctrl.wrQLenPdf::1                        1                       # What write queue length does an incoming req see
system.mem_ctrl.wrQLenPdf::2                        1                       # What write queue length does an incoming req see
system.mem_ctrl.wrQLenPdf::3                        1                       # What write queue length does an incoming req see
system.mem_ctrl.wrQLenPdf::4                        1                       # What write queue length does an incoming req see
system.mem_ctrl.wrQLenPdf::5                        1                       # What write queue length does an incoming req see
system.mem_ctrl.wrQLenPdf::6                        1                       # What write queue length does an incoming req see
system.mem_ctrl.wrQLenPdf::7                        1                       # What write queue length does an incoming req see
system.mem_ctrl.wrQLenPdf::8                        1                       # What write queue length does an incoming req see
system.mem_ctrl.wrQLenPdf::9                        1                       # What write queue length does an incoming req see
system.mem_ctrl.wrQLenPdf::10                       1                       # What write queue length does an incoming req see
system.mem_ctrl.wrQLenPdf::11                       1                       # What write queue length does an incoming req see
system.mem_ctrl.wrQLenPdf::12                       1                       # What write queue length does an incoming req see
system.mem_ctrl.wrQLenPdf::13                       1                       # What write queue length does an incoming req see
system.mem_ctrl.wrQLenPdf::14                       1                       # What write queue length does an incoming req see
system.mem_ctrl.wrQLenPdf::15                       5                       # What write queue length does an incoming req see
system.mem_ctrl.wrQLenPdf::16                       5                       # What write queue length does an incoming req see
system.mem_ctrl.wrQLenPdf::17                     104                       # What write queue length does an incoming req see
system.mem_ctrl.wrQLenPdf::18                     105                       # What write queue length does an incoming req see
system.mem_ctrl.wrQLenPdf::19                     105                       # What write queue length does an incoming req see
system.mem_ctrl.wrQLenPdf::20                     105                       # What write queue length does an incoming req see
system.mem_ctrl.wrQLenPdf::21                     105                       # What write queue length does an incoming req see
system.mem_ctrl.wrQLenPdf::22                     105                       # What write queue length does an incoming req see
system.mem_ctrl.wrQLenPdf::23                     105                       # What write queue length does an incoming req see
system.mem_ctrl.wrQLenPdf::24                     105                       # What write queue length does an incoming req see
system.mem_ctrl.wrQLenPdf::25                     104                       # What write queue length does an incoming req see
system.mem_ctrl.wrQLenPdf::26                     105                       # What write queue length does an incoming req see
system.mem_ctrl.wrQLenPdf::27                     104                       # What write queue length does an incoming req see
system.mem_ctrl.wrQLenPdf::28                     104                       # What write queue length does an incoming req see
system.mem_ctrl.wrQLenPdf::29                     104                       # What write queue length does an incoming req see
system.mem_ctrl.wrQLenPdf::30                     104                       # What write queue length does an incoming req see
system.mem_ctrl.wrQLenPdf::31                     104                       # What write queue length does an incoming req see
system.mem_ctrl.wrQLenPdf::32                     104                       # What write queue length does an incoming req see
system.mem_ctrl.wrQLenPdf::33                       0                       # What write queue length does an incoming req see
system.mem_ctrl.wrQLenPdf::34                       0                       # What write queue length does an incoming req see
system.mem_ctrl.wrQLenPdf::35                       0                       # What write queue length does an incoming req see
system.mem_ctrl.wrQLenPdf::36                       0                       # What write queue length does an incoming req see
system.mem_ctrl.wrQLenPdf::37                       0                       # What write queue length does an incoming req see
system.mem_ctrl.wrQLenPdf::38                       0                       # What write queue length does an incoming req see
system.mem_ctrl.wrQLenPdf::39                       0                       # What write queue length does an incoming req see
system.mem_ctrl.wrQLenPdf::40                       0                       # What write queue length does an incoming req see
system.mem_ctrl.wrQLenPdf::41                       0                       # What write queue length does an incoming req see
system.mem_ctrl.wrQLenPdf::42                       0                       # What write queue length does an incoming req see
system.mem_ctrl.wrQLenPdf::43                       0                       # What write queue length does an incoming req see
system.mem_ctrl.wrQLenPdf::44                       0                       # What write queue length does an incoming req see
system.mem_ctrl.wrQLenPdf::45                       0                       # What write queue length does an incoming req see
system.mem_ctrl.wrQLenPdf::46                       0                       # What write queue length does an incoming req see
system.mem_ctrl.wrQLenPdf::47                       0                       # What write queue length does an incoming req see
system.mem_ctrl.wrQLenPdf::48                       0                       # What write queue length does an incoming req see
system.mem_ctrl.wrQLenPdf::49                       0                       # What write queue length does an incoming req see
system.mem_ctrl.wrQLenPdf::50                       0                       # What write queue length does an incoming req see
system.mem_ctrl.wrQLenPdf::51                       0                       # What write queue length does an incoming req see
system.mem_ctrl.wrQLenPdf::52                       0                       # What write queue length does an incoming req see
system.mem_ctrl.wrQLenPdf::53                       0                       # What write queue length does an incoming req see
system.mem_ctrl.wrQLenPdf::54                       0                       # What write queue length does an incoming req see
system.mem_ctrl.wrQLenPdf::55                       0                       # What write queue length does an incoming req see
system.mem_ctrl.wrQLenPdf::56                       0                       # What write queue length does an incoming req see
system.mem_ctrl.wrQLenPdf::57                       0                       # What write queue length does an incoming req see
system.mem_ctrl.wrQLenPdf::58                       0                       # What write queue length does an incoming req see
system.mem_ctrl.wrQLenPdf::59                       0                       # What write queue length does an incoming req see
system.mem_ctrl.wrQLenPdf::60                       0                       # What write queue length does an incoming req see
system.mem_ctrl.wrQLenPdf::61                       0                       # What write queue length does an incoming req see
system.mem_ctrl.wrQLenPdf::62                       0                       # What write queue length does an incoming req see
system.mem_ctrl.wrQLenPdf::63                       0                       # What write queue length does an incoming req see
system.mem_ctrl.bytesPerActivate::samples        46239                       # Bytes accessed per row activation
system.mem_ctrl.bytesPerActivate::mean     623.091676                       # Bytes accessed per row activation
system.mem_ctrl.bytesPerActivate::gmean    411.308459                       # Bytes accessed per row activation
system.mem_ctrl.bytesPerActivate::stdev    411.125140                       # Bytes accessed per row activation
system.mem_ctrl.bytesPerActivate::0-127          8012     17.33%     17.33% # Bytes accessed per row activation
system.mem_ctrl.bytesPerActivate::128-255         5974     12.92%     30.25% # Bytes accessed per row activation
system.mem_ctrl.bytesPerActivate::256-383         3287      7.11%     37.36% # Bytes accessed per row activation
system.mem_ctrl.bytesPerActivate::384-511         2189      4.73%     42.09% # Bytes accessed per row activation
system.mem_ctrl.bytesPerActivate::512-639         2001      4.33%     46.42% # Bytes accessed per row activation
system.mem_ctrl.bytesPerActivate::640-767         1491      3.22%     49.64% # Bytes accessed per row activation
system.mem_ctrl.bytesPerActivate::768-895         1284      2.78%     52.42% # Bytes accessed per row activation
system.mem_ctrl.bytesPerActivate::896-1023         1140      2.47%     54.88% # Bytes accessed per row activation
system.mem_ctrl.bytesPerActivate::1024-1151        20861     45.12%    100.00% # Bytes accessed per row activation
system.mem_ctrl.bytesPerActivate::total         46239                       # Bytes accessed per row activation
system.mem_ctrl.rdPerTurnAround::samples          104                       # Reads before turning the bus around for writes
system.mem_ctrl.rdPerTurnAround::mean     4309.500000                       # Reads before turning the bus around for writes
system.mem_ctrl.rdPerTurnAround::stdev   13805.510477                       # Reads before turning the bus around for writes
system.mem_ctrl.rdPerTurnAround::0-4095            93     89.42%     89.42% # Reads before turning the bus around for writes
system.mem_ctrl.rdPerTurnAround::4096-8191            3      2.88%     92.31% # Reads before turning the bus around for writes
system.mem_ctrl.rdPerTurnAround::8192-12287            3      2.88%     95.19% # Reads before turning the bus around for writes
system.mem_ctrl.rdPerTurnAround::12288-16383            1      0.96%     96.15% # Reads before turning the bus around for writes
system.mem_ctrl.rdPerTurnAround::24576-28671            1      0.96%     97.12% # Reads before turning the bus around for writes
system.mem_ctrl.rdPerTurnAround::57344-61439            1      0.96%     98.08% # Reads before turning the bus around for writes
system.mem_ctrl.rdPerTurnAround::73728-77823            1      0.96%     99.04% # Reads before turning the bus around for writes
system.mem_ctrl.rdPerTurnAround::102400-106495            1      0.96%    100.00% # Reads before turning the bus around for writes
system.mem_ctrl.rdPerTurnAround::total            104                       # Reads before turning the bus around for writes
system.mem_ctrl.wrPerTurnAround::samples          104                       # Writes before turning the bus around for reads
system.mem_ctrl.wrPerTurnAround::mean       16.076923                       # Writes before turning the bus around for reads
system.mem_ctrl.wrPerTurnAround::gmean      16.072646                       # Writes before turning the bus around for reads
system.mem_ctrl.wrPerTurnAround::stdev       0.386478                       # Writes before turning the bus around for reads
system.mem_ctrl.wrPerTurnAround::16               100     96.15%     96.15% # Writes before turning the bus around for reads
system.mem_ctrl.wrPerTurnAround::18                 4      3.85%    100.00% # Writes before turning the bus around for reads
system.mem_ctrl.wrPerTurnAround::total            104                       # Writes before turning the bus around for reads
system.mem_ctrl.bytesReadDRAM                28706112                       # Total number of bytes read from DRAM
system.mem_ctrl.bytesReadWrQ                   330304                       # Total number of bytes read from write queue
system.mem_ctrl.bytesWritten                   107008                       # Total number of bytes written to DRAM
system.mem_ctrl.bytesReadSys                  3474024                       # Total read bytes from the system interface side
system.mem_ctrl.bytesWrittenSys                199447                       # Total written bytes from the system interface side
system.mem_ctrl.avgRdBW                       1185.65                       # Average DRAM read bandwidth in MiByte/s
system.mem_ctrl.avgWrBW                          4.42                       # Average achieved write bandwidth in MiByte/s
system.mem_ctrl.avgRdBWSys                     143.49                       # Average system read bandwidth in MiByte/s
system.mem_ctrl.avgWrBWSys                       8.24                       # Average system write bandwidth in MiByte/s
system.mem_ctrl.peakBW                       12800.00                       # Theoretical peak bandwidth in MiByte/s
system.mem_ctrl.busUtil                          9.30                       # Data bus utilization in percentage
system.mem_ctrl.busUtilRead                      9.26                       # Data bus utilization in percentage for reads
system.mem_ctrl.busUtilWrite                     0.03                       # Data bus utilization in percentage for writes
system.mem_ctrl.totGap                    24211082000                       # Total gap between requests
system.mem_ctrl.avgGap                       50312.82                       # Average gap between requests
system.mem_ctrl.masterReadBytes::.cpu.inst      3070424                       # Per-master bytes read from memory
system.mem_ctrl.masterReadBytes::.cpu.data       364981                       # Per-master bytes read from memory
system.mem_ctrl.masterWriteBytes::.cpu.data        12153                       # Per-master bytes write to memory
system.mem_ctrl.masterReadRate::.cpu.inst 126818290.107622876763                       # Per-master bytes read from memory rate (Bytes/sec)
system.mem_ctrl.masterReadRate::.cpu.data 15074877.717790866271                       # Per-master bytes read from memory rate (Bytes/sec)
system.mem_ctrl.masterWriteRate::.cpu.data 501957.605750196322                       # Per-master bytes write to memory rate (Bytes/sec)
system.mem_ctrl.masterReadAccesses::.cpu.inst       383803                       # Per-master read serviced memory accesses
system.mem_ctrl.masterReadAccesses::.cpu.data        69891                       # Per-master read serviced memory accesses
system.mem_ctrl.masterWriteAccesses::.cpu.data        27517                       # Per-master write serviced memory accesses
system.mem_ctrl.masterReadTotalLat::.cpu.inst   8324648750                       # Per-master read total memory access latency
system.mem_ctrl.masterReadTotalLat::.cpu.data   1626207000                       # Per-master read total memory access latency
system.mem_ctrl.masterWriteTotalLat::.cpu.data 646124074250                       # Per-master write total memory access latency
system.mem_ctrl.masterReadAvgLat::.cpu.inst     21689.90                       # Per-master read average memory access latency
system.mem_ctrl.masterReadAvgLat::.cpu.data     23267.76                       # Per-master read average memory access latency
system.mem_ctrl.masterWriteAvgLat::.cpu.data  23480905.41                       # Per-master write average memory access latency
system.mem_ctrl.pageHitRate                     89.72                       # Row buffer hit rate, read and write combined
system.mem_ctrl.power_state.pwrStateResidencyTicks::UNDEFINED  24211208000                       # Cumulative time (in ticks) in various power states
system.mem_ctrl.rank0.actEnergy              87457860                       # Energy for activate commands per rank (pJ)
system.mem_ctrl.rank0.preEnergy              46477365                       # Energy for precharge commands per rank (pJ)
system.mem_ctrl.rank0.readEnergy            742410060                       # Energy for read commands per rank (pJ)
system.mem_ctrl.rank0.writeEnergy             1592100                       # Energy for write commands per rank (pJ)
system.mem_ctrl.rank0.refreshEnergy      1910915760.000000                       # Energy for refresh commands per rank (pJ)
system.mem_ctrl.rank0.actBackEnergy        8570116440                       # Energy for active background per rank (pJ)
system.mem_ctrl.rank0.preBackEnergy        2080164000                       # Energy for precharge background per rank (pJ)
system.mem_ctrl.rank0.actPowerDownEnergy            0                       # Energy for active power-down per rank (pJ)
system.mem_ctrl.rank0.prePowerDownEnergy            0                       # Energy for precharge power-down per rank (pJ)
system.mem_ctrl.rank0.selfRefreshEnergy             0                       # Energy for self refresh per rank (pJ)
system.mem_ctrl.rank0.totalEnergy         13439133585                       # Total energy per rank (pJ)
system.mem_ctrl.rank0.averagePower         555.079019                       # Core power per rank (mW)
system.mem_ctrl.rank0.totalIdleTime                 0                       # Total Idle time Per DRAM Rank
system.mem_ctrl.rank0.memoryStateTime::IDLE   5315988500                       # Time in different power states
system.mem_ctrl.rank0.memoryStateTime::REF    808340000                       # Time in different power states
system.mem_ctrl.rank0.memoryStateTime::SREF            0                       # Time in different power states
system.mem_ctrl.rank0.memoryStateTime::PRE_PDN            0                       # Time in different power states
system.mem_ctrl.rank0.memoryStateTime::ACT  18086879500                       # Time in different power states
system.mem_ctrl.rank0.memoryStateTime::ACT_PDN            0                       # Time in different power states
system.mem_ctrl.rank1.actEnergy             242724300                       # Energy for activate commands per rank (pJ)
system.mem_ctrl.rank1.preEnergy             128999640                       # Energy for precharge commands per rank (pJ)
system.mem_ctrl.rank1.readEnergy           2460115560                       # Energy for read commands per rank (pJ)
system.mem_ctrl.rank1.writeEnergy             7135740                       # Energy for write commands per rank (pJ)
system.mem_ctrl.rank1.refreshEnergy      1910915760.000000                       # Energy for refresh commands per rank (pJ)
system.mem_ctrl.rank1.actBackEnergy       10702956120                       # Energy for active background per rank (pJ)
system.mem_ctrl.rank1.preBackEnergy         284088480                       # Energy for precharge background per rank (pJ)
system.mem_ctrl.rank1.actPowerDownEnergy            0                       # Energy for active power-down per rank (pJ)
system.mem_ctrl.rank1.prePowerDownEnergy            0                       # Energy for precharge power-down per rank (pJ)
system.mem_ctrl.rank1.selfRefreshEnergy             0                       # Energy for self refresh per rank (pJ)
system.mem_ctrl.rank1.totalEnergy         15736935600                       # Total energy per rank (pJ)
system.mem_ctrl.rank1.averagePower         649.985560                       # Core power per rank (mW)
system.mem_ctrl.rank1.totalIdleTime                 0                       # Total Idle time Per DRAM Rank
system.mem_ctrl.rank1.memoryStateTime::IDLE    588143000                       # Time in different power states
system.mem_ctrl.rank1.memoryStateTime::REF    808340000                       # Time in different power states
system.mem_ctrl.rank1.memoryStateTime::SREF            0                       # Time in different power states
system.mem_ctrl.rank1.memoryStateTime::PRE_PDN            0                       # Time in different power states
system.mem_ctrl.rank1.memoryStateTime::ACT  22814725000                       # Time in different power states
system.mem_ctrl.rank1.memoryStateTime::ACT_PDN            0                       # Time in different power states
system.membus.trans_dist::ReadReq              453694                       # Transaction distribution
system.membus.trans_dist::ReadResp             453694                       # Transaction distribution
system.membus.trans_dist::WriteReq              27517                       # Transaction distribution
system.membus.trans_dist::WriteResp             27517                       # Transaction distribution
system.membus.pkt_count_system.cpu.icache_port::system.mem_ctrl.port       767606                       # Packet count per connected master and slave (bytes)
system.membus.pkt_count_system.cpu.icache_port::total       767606                       # Packet count per connected master and slave (bytes)
system.membus.pkt_count_system.cpu.dcache_port::system.mem_ctrl.port       194816                       # Packet count per connected master and slave (bytes)
system.membus.pkt_count_system.cpu.dcache_port::total       194816                       # Packet count per connected master and slave (bytes)
system.membus.pkt_count::total                 962422                       # Packet count per connected master and slave (bytes)
system.membus.pkt_size_system.cpu.icache_port::system.mem_ctrl.port      3070424                       # Cumulative packet size per connected master and slave (bytes)
system.membus.pkt_size_system.cpu.icache_port::total      3070424                       # Cumulative packet size per connected master and slave (bytes)
system.membus.pkt_size_system.cpu.dcache_port::system.mem_ctrl.port       603047                       # Cumulative packet size per connected master and slave (bytes)
system.membus.pkt_size_system.cpu.dcache_port::total       603047                       # Cumulative packet size per connected master and slave (bytes)
system.membus.pkt_size::total                 3673471                       # Cumulative packet size per connected master and slave (bytes)
system.membus.snoops                                0                       # Total snoops (count)
system.membus.snoopTraffic                          0                       # Total snoop traffic (bytes)
system.membus.snoop_fanout::samples            481211                       # Request fanout histogram
system.membus.snoop_fanout::mean                    0                       # Request fanout histogram
system.membus.snoop_fanout::stdev                   0                       # Request fanout histogram
system.membus.snoop_fanout::underflows              0      0.00%      0.00% # Request fanout histogram
system.membus.snoop_fanout::0                  481211    100.00%    100.00% # Request fanout histogram
system.membus.snoop_fanout::1                       0      0.00%    100.00% # Request fanout histogram
system.membus.snoop_fanout::overflows               0      0.00%    100.00% # Request fanout histogram
system.membus.snoop_fanout::min_value               0                       # Request fanout histogram
system.membus.snoop_fanout::max_value               0                       # Request fanout histogram
system.membus.snoop_fanout::total              481211                       # Request fanout histogram
system.membus.power_state.pwrStateResidencyTicks::UNDEFINED  24211208000                       # Cumulative time (in ticks) in various power states
system.membus.reqLayer2.occupancy           508728000                       # Layer occupancy (ticks)
system.membus.reqLayer2.utilization               2.1                       # Layer utilization (%)
system.membus.respLayer0.occupancy          871479250                       # Layer occupancy (ticks)
system.membus.respLayer0.utilization              3.6                       # Layer utilization (%)
system.membus.respLayer1.occupancy          188915000                       # Layer occupancy (ticks)
system.membus.respLayer1.utilization              0.8                       # Layer utilization (%)

---------- End Simulation Statistics   ----------
